
     RDKit          3D

 79 84  0  0  0  0  0  0  0  0999 V2000
  -16.7080    1.1290    2.6790 N   0  0  0  0  0  0  0  0  0  0  0  0
  -16.3220    2.4380    2.8090 C   0  0  0  0  0  0  0  0  0  0  0  0
  -15.1380    3.0030    2.0230 C   0  0  0  0  0  0  0  0  0  0  0  0
  -14.3370    2.1400    1.5760 O   0  0  0  0  0  0  0  0  0  0  0  0
  -15.0650    4.2580    1.9570 O   0  0  0  0  0  0  0  0  0  0  0  0
  -16.7980   12.3970    6.5520 C   0  0  0  0  0  0  0  0  0  0  0  0
  -16.6370   13.4770    7.0500 C   0  0  0  0  0  0  0  0  0  0  0  0
  -25.9670    1.1170   11.2760 C   0  0  0  0  0  0  0  0  0  0  0  0
  -24.9450    2.0060   11.5120 C   0  0  0  0  0  0  0  0  0  0  0  0
  -21.2140   -4.3080    4.7210 C   0  0  0  0  0  0  0  0  0  0  0  0
  -17.5900   10.1670    6.8700 C   0  0  0  0  0  0  0  0  0  0  0  0
  -21.5930   -3.3290    5.6110 C   0  0  0  0  0  0  0  0  0  0  0  0
  -20.2130   -4.0440    3.8130 C   0  0  0  0  0  0  0  0  0  0  0  0
  -25.8590    0.1200   10.3340 C   0  0  0  0  0  0  0  0  0  0  0  0
  -17.8090    8.8940    6.4040 C   0  0  0  0  0  0  0  0  0  0  0  0
  -23.7590    1.9530   10.8190 C   0  0  0  0  0  0  0  0  0  0  0  0
  -16.8690    9.4600    4.2780 C   0  0  0  0  0  0  0  0  0  0  0  0
  -17.0080   11.0870    6.0310 C   0  0  0  0  0  0  0  0  0  0  0  0
  -20.9630   -2.1060    5.5830 C   0  0  0  0  0  0  0  0  0  0  0  0
  -19.5900   -2.8160    3.7800 C   0  0  0  0  0  0  0  0  0  0  0  0
  -19.9610   -1.8250    4.6670 C   0  0  0  0  0  0  0  0  0  0  0  0
  -24.6780    0.0490    9.6160 C   0  0  0  0  0  0  0  0  0  0  0  0
  -17.4480    8.5400    5.1240 C   0  0  0  0  0  0  0  0  0  0  0  0
  -23.6640    0.9560    9.8720 C   0  0  0  0  0  0  0  0  0  0  0  0
  -23.2110   -0.6880    8.1300 C   0  0  0  0  0  0  0  0  0  0  0  0
  -21.4210   -1.1260    6.5780 C   0  0  0  0  0  0  0  0  0  0  0  0
  -18.5360   -2.5800    2.7550 C   0  0  0  0  0  0  0  0  0  0  0  0
  -19.2760   -0.4990    4.6450 C   0  0  0  0  0  0  0  0  0  0  0  0
  -17.5690   -1.5240    3.2410 C   0  0  0  0  0  0  0  0  0  0  0  0
  -17.0330    3.2150    3.6980 C   0  0  0  0  0  0  0  0  0  0  0  0
  -17.7190    0.8640    3.4730 C   0  0  0  0  0  0  0  0  0  0  0  0
  -15.2820   15.3620    5.6090 C   0  0  0  0  0  0  0  0  0  0  0  0
  -17.4940   16.3270    6.0900 C   0  0  0  0  0  0  0  0  0  0  0  0
  -16.4490   14.7750    7.6950 C   0  0  0  0  0  0  0  0  0  0  0  0
  -16.8690    4.6370    4.0610 C   0  0  0  0  0  0  0  0  0  0  0  0
  -17.7330    5.5320    3.1880 C   0  0  0  0  0  0  0  0  0  0  0  0
  -17.3670    6.9880    3.4130 C   0  0  0  0  0  0  0  0  0  0  0  0
  -16.6480   10.7410    4.7440 C   0  0  0  0  0  0  0  0  0  0  0  0
  -24.4050   -0.8790    8.6370 N   0  0  0  0  0  0  0  0  0  0  0  0
  -22.6370   -1.4580    7.1310 N   0  0  0  0  0  0  0  0  0  0  0  0
  -18.3410   -0.3430    3.5510 N   0  0  0  0  0  0  0  0  0  0  0  0
  -16.2300   15.8050    6.6550 N   0  0  0  0  0  0  0  0  0  0  0  0
  -20.7240   -0.1740    6.8750 O   0  0  0  0  0  0  0  0  0  0  0  0
  -17.7070    7.2330    4.7600 O   0  0  0  0  0  0  0  0  0  0  0  0
  -22.3390    0.6170    8.8300 S   0  0  0  0  0  0  0  0  0  0  0  0
  -18.2340    2.2200    4.4070 S   0  0  0  0  0  0  0  0  0  0  0  0
  -18.3730    7.9900    7.2120 F   0  0  0  0  0  0  0  0  0  0  0  0
  -14.3214    4.6853    1.4623 H   0  0  0  0  0  0  0  0  0  0  0  0
  -26.8971    1.2053   11.8566 H   0  0  0  0  0  0  0  0  0  0  0  0
  -25.0805    2.7832   12.2786 H   0  0  0  0  0  0  0  0  0  0  0  0
  -21.7059   -5.2918    4.7349 H   0  0  0  0  0  0  0  0  0  0  0  0
  -17.8750   10.4452    7.8954 H   0  0  0  0  0  0  0  0  0  0  0  0
  -22.3940   -3.5229    6.3396 H   0  0  0  0  0  0  0  0  0  0  0  0
  -19.9061   -4.8260    3.1029 H   0  0  0  0  0  0  0  0  0  0  0  0
  -26.6787   -0.5923   10.1586 H   0  0  0  0  0  0  0  0  0  0  0  0
  -22.9385    2.6608   11.0081 H   0  0  0  0  0  0  0  0  0  0  0  0
  -16.5883    9.1800    3.2519 H   0  0  0  0  0  0  0  0  0  0  0  0
  -17.9900   -3.5171    2.5715 H   0  0  0  0  0  0  0  0  0  0  0  0
  -19.0089   -2.2352    1.8236 H   0  0  0  0  0  0  0  0  0  0  0  0
  -20.0421    0.2859    4.5611 H   0  0  0  0  0  0  0  0  0  0  0  0
  -18.6955   -0.4226    5.5762 H   0  0  0  0  0  0  0  0  0  0  0  0
  -17.0460   -1.8786    4.1414 H   0  0  0  0  0  0  0  0  0  0  0  0
  -16.8141   -1.3043    2.4717 H   0  0  0  0  0  0  0  0  0  0  0  0
  -14.3828   14.9418    6.0833 H   0  0  0  0  0  0  0  0  0  0  0  0
  -15.7594   14.5937    4.9830 H   0  0  0  0  0  0  0  0  0  0  0  0
  -14.9990   16.2211    4.9830 H   0  0  0  0  0  0  0  0  0  0  0  0
  -18.1732   16.6075    6.9085 H   0  0  0  0  0  0  0  0  0  0  0  0
  -17.2814   17.2109    5.4707 H   0  0  0  0  0  0  0  0  0  0  0  0
  -17.9670   15.5506    5.4707 H   0  0  0  0  0  0  0  0  0  0  0  0
  -17.3446   15.0281    8.2814 H   0  0  0  0  0  0  0  0  0  0  0  0
  -15.5775   14.7334    8.3649 H   0  0  0  0  0  0  0  0  0  0  0  0
  -17.1593    4.7742    5.1131 H   0  0  0  0  0  0  0  0  0  0  0  0
  -15.8157    4.9153    3.9090 H   0  0  0  0  0  0  0  0  0  0  0  0
  -17.5713    5.2751    2.1307 H   0  0  0  0  0  0  0  0  0  0  0  0
  -18.7902    5.3810    3.4516 H   0  0  0  0  0  0  0  0  0  0  0  0
  -16.2914    7.1486    3.2480 H   0  0  0  0  0  0  0  0  0  0  0  0
  -17.8903    7.6630    2.7198 H   0  0  0  0  0  0  0  0  0  0  0  0
  -16.1826   11.4897    4.0861 H   0  0  0  0  0  0  0  0  0  0  0  0
  -23.1310   -2.2970    6.7950 H   0  0  0  0  0  0  0  0  0  0  0  0
  2  1  1  0
  3  2  1  0
  4  3  2  0
  5  3  1  0
  7  6  3  0
  9  8  2  0
 12 10  2  0
 13 10  1  0
 14  8  1  0
 15 11  2  0
 16  9  1  0
 18 11  1  0
 18  6  1  0
 19 12  1  0
 20 13  2  0
 21 20  1  0
 21 19  2  0
 22 14  2  0
 23 17  2  0
 23 15  1  0
 24 22  1  0
 24 16  2  0
 26 19  1  0
 27 20  1  0
 28 21  1  0
 29 27  1  0
 30  2  2  0
 31  1  2  0
 34  7  1  0
 35 30  1  0
 36 35  1  0
 37 36  1  0
 38 17  1  0
 38 18  2  0
 39 25  2  0
 39 22  1  0
 40 25  1  0
 40 26  1  0
 41 31  1  0
 41 29  1  0
 41 28  1  0
 42 34  1  0
 42 33  1  0
 42 32  1  0
 43 26  2  0
 44 37  1  0
 44 23  1  0
 45 25  1  0
 45 24  1  0
 46 31  1  0
 46 30  1  0
 47 15  1  0
  5 48  1  0
  8 49  1  0
  9 50  1  0
 10 51  1  0
 11 52  1  0
 12 53  1  0
 13 54  1  0
 14 55  1  0
 16 56  1  0
 17 57  1  0
 27 58  1  0
 27 59  1  0
 28 60  1  0
 28 61  1  0
 29 62  1  0
 29 63  1  0
 32 64  1  0
 32 65  1  0
 32 66  1  0
 33 67  1  0
 33 68  1  0
 33 69  1  0
 34 70  1  0
 34 71  1  0
 35 72  1  0
 35 73  1  0
 36 74  1  0
 36 75  1  0
 37 76  1  0
 37 77  1  0
 38 78  1  0
 40 79  1  0
M  END
$$$$
