3CQ
  CCTOOLS-0919241043

 79 84  0  0  0  0  0  0  0  0999 V2000
    1.4740    0.7070   -0.5260 N   0  0  0  0  0
    0.3100    0.0900   -0.7500 C   0  0  0  0  0
    0.1140   -1.3440   -0.4930 C   0  0  0  0  0
   -0.9650   -1.8590   -0.7120 O   0  0  0  0  0
    1.1320   -2.0880   -0.0150 O   0  0  0  0  0
  -10.5660   -1.1600   -0.0670 C   0  0  0  0  0
  -11.6930   -1.4670   -0.1840 C   0  0  0  0  0
    9.7100   -5.2790    0.2540 C   0  0  0  0  0
    8.4380   -5.7720   -0.0010 C   0  0  0  0  0
    7.1550    4.5100    0.7130 C   0  0  0  0  0
   -8.7200   -0.3040    1.2980 C   0  0  0  0  0
    7.3120    3.1430    0.6170 C   0  0  0  0  0
    5.9050    5.0750    0.5500 C   0  0  0  0  0
    9.9170   -3.9330    0.4170 C   0  0  0  0  0
   -7.3930    0.0510    1.4320 C   0  0  0  0  0
    7.3710   -4.9080   -0.0980 C   0  0  0  0  0
   -6.9960   -0.5400   -0.8680 C   0  0  0  0  0
   -9.1910   -0.7850    0.0750 C   0  0  0  0  0
    6.2050    2.3380    0.3510 C   0  0  0  0  0
    4.7970    4.2800    0.2880 C   0  0  0  0  0
    4.9410    2.9160    0.1820 C   0  0  0  0  0
    8.8380   -3.0280    0.3280 C   0  0  0  0  0
   -6.5280   -0.0670    0.3500 C   0  0  0  0  0
    7.5640   -3.5370    0.0590 C   0  0  0  0  0
    7.7340   -1.0570    0.3130 C   0  0  0  0  0
    6.3670    0.8730    0.2480 C   0  0  0  0  0
    3.4590    4.9500    0.1070 C   0  0  0  0  0
    3.7690    2.0100   -0.0890 C   0  0  0  0  0
    2.3370    3.9220    0.2480 C   0  0  0  0  0
   -0.6750    0.8830   -1.2290 C   0  0  0  0  0
    1.5250    1.9740   -0.7890 C   0  0  0  0  0
  -15.3580   -0.9660   -0.4180 C   0  0  0  0  0
  -13.8550   -0.2800    1.3520 C   0  0  0  0  0
  -13.1060   -1.8520   -0.3300 C   0  0  0  0  0
   -2.0770    0.4440   -1.5640 C   0  0  0  0  0
   -2.9680    0.5940   -0.3290 C   0  0  0  0  0
   -4.3910    0.1490   -0.6700 C   0  0  0  0  0
   -8.3190   -0.9010   -1.0080 C   0  0  0  0  0
    8.8500   -1.6860    0.4510 N   0  0  0  0  0
    7.5830    0.3150    0.4100 N   0  0  0  0  0
    2.6390    2.7780   -0.6220 N   0  0  0  0  0
  -13.9620   -0.6900   -0.0550 N   0  0  0  0  0
    5.4030    0.1700    0.0160 O   0  0  0  0  0
   -5.2230    0.2890    0.4840 O   0  0  0  0  0
    6.4270   -2.1920    0.0070 S   0  0  0  0  0
   -0.0370    2.5170   -1.3920 S   0  0  0  0  0
   -6.9340    0.5120    2.6160 F   0  0  0  0  0
    0.9550   -3.0260    0.1380 H   0  0  0  0  0
   10.5430   -5.9620    0.3290 H   0  0  0  0  0
    8.2860   -6.8340   -0.1250 H   0  0  0  0  0
    8.0090    5.1390    0.9200 H   0  0  0  0  0
   -9.3920   -0.2130    2.1380 H   0  0  0  0  0
    8.2880    2.6990    0.7470 H   0  0  0  0  0
    5.7880    6.1460    0.6270 H   0  0  0  0  0
   10.9120   -3.5630    0.6150 H   0  0  0  0  0
    6.3820   -5.2930   -0.2970 H   0  0  0  0  0
   -6.3210   -0.6290   -1.7070 H   0  0  0  0  0
    3.3370    5.7250    0.8650 H   0  0  0  0  0
    3.4120    5.4040   -0.8830 H   0  0  0  0  0
    4.0620    1.2510   -0.8140 H   0  0  0  0  0
    3.4670    1.5250    0.8390 H   0  0  0  0  0
    2.2730    3.5880    1.2840 H   0  0  0  0  0
    1.3900    4.3700   -0.0540 H   0  0  0  0  0
  -15.9690   -0.0890   -0.2040 H   0  0  0  0  0
  -15.4170   -1.1990   -1.4810 H   0  0  0  0  0
  -15.7230   -1.8140    0.1610 H   0  0  0  0  0
  -14.2320   -1.0770    1.9920 H   0  0  0  0  0
  -12.8110   -0.0820    1.5940 H   0  0  0  0  0
  -14.4430    0.6240    1.5120 H   0  0  0  0  0
  -13.2840   -2.2010   -1.3470 H   0  0  0  0  0
  -13.3400   -2.6510    0.3740 H   0  0  0  0  0
   -2.4680    1.0640   -2.3710 H   0  0  0  0  0
   -2.0660   -0.5990   -1.8800 H   0  0  0  0  0
   -2.5770   -0.0250    0.4780 H   0  0  0  0  0
   -2.9790    1.6370   -0.0140 H   0  0  0  0  0
   -4.7820    0.7680   -1.4770 H   0  0  0  0  0
   -4.3800   -0.8940   -0.9850 H   0  0  0  0  0
   -8.6810   -1.2690   -1.9570 H   0  0  0  0  0
    8.3530    0.8760    0.5950 H   0  0  0  0  0
  1  2  1  0  0  0
  1 31  2  0  0  0
  2 30  2  0  0  0
  3  2  1  0  0  0
  4  3  2  0  0  0
  5  3  1  0  0  0
  5 48  1  0  0  0
  6  7  3  0  0  0
  7 34  1  0  0  0
  8  9  1  0  0  0
  8 49  1  0  0  0
  9 50  1  0  0  0
 10 12  2  0  0  0
 10 51  1  0  0  0
 11 52  1  0  0  0
 12 53  1  0  0  0
 13 10  1  0  0  0
 13 54  1  0  0  0
 14  8  2  0  0  0
 14 55  1  0  0  0
 15 11  1  0  0  0
 15 47  1  0  0  0
 16  9  2  0  0  0
 16 56  1  0  0  0
 17 38  2  0  0  0
 17 23  1  0  0  0
 17 57  1  0  0  0
 18  6  1  0  0  0
 18 11  2  0  0  0
 19 12  1  0  0  0
 19 26  1  0  0  0
 20 13  2  0  0  0
 20 21  1  0  0  0
 21 19  2  0  0  0
 22 24  2  0  0  0
 22 14  1  0  0  0
 23 15  2  0  0  0
 24 16  1  0  0  0
 25 39  2  0  0  0
 25 45  1  0  0  0
 26 43  2  0  0  0
 26 40  1  0  0  0
 27 29  1  0  0  0
 27 20  1  0  0  0
 27 58  1  0  0  0
 27 59  1  0  0  0
 28 21  1  0  0  0
 28 60  1  0  0  0
 28 61  1  0  0  0
 29 41  1  0  0  0
 29 62  1  0  0  0
 29 63  1  0  0  0
 30 35  1  0  0  0
 30 46  1  0  0  0
 31 41  1  0  0  0
 31 46  1  0  0  0
 32 42  1  0  0  0
 32 64  1  0  0  0
 32 65  1  0  0  0
 32 66  1  0  0  0
 33 42  1  0  0  0
 33 67  1  0  0  0
 33 68  1  0  0  0
 33 69  1  0  0  0
 34 70  1  0  0  0
 34 71  1  0  0  0
 35 72  1  0  0  0
 35 73  1  0  0  0
 36 37  1  0  0  0
 36 35  1  0  0  0
 36 74  1  0  0  0
 36 75  1  0  0  0
 37 44  1  0  0  0
 37 76  1  0  0  0
 37 77  1  0  0  0
 38 18  1  0  0  0
 38 78  1  0  0  0
 39 22  1  0  0  0
 40 25  1  0  0  0
 40 79  1  0  0  0
 41 28  1  0  0  0
 42 34  1  0  0  0
 44 23  1  0  0  0
 45 24  1  0  0  0
M  END
$$$$
