
     RDKit          3D

 94100  0  0  0  0  0  0  0  0999 V2000
  -21.8180   12.8850   -6.5420 N   0  0  0  0  0  0  0  0  0  0  0  0
  -14.7340   14.6100   -4.4240 N   0  0  0  0  0  0  0  0  0  0  0  0
  -16.5460   10.1930   -6.4260 C   0  0  0  0  0  0  0  0  0  0  0  0
  -18.9190   10.6350   -6.2770 C   0  0  0  0  0  0  0  0  0  0  0  0
  -19.8540   11.7870   -6.4550 C   0  0  0  0  0  0  0  0  0  0  0  0
  -19.6050   13.1030   -6.7670 C   0  0  0  0  0  0  0  0  0  0  0  0
  -20.8350   13.7400   -6.8260 C   0  0  0  0  0  0  0  0  0  0  0  0
  -22.4290   10.5060   -4.5160 C   0  0  2  0  0  0  0  0  0  0  0  0
  -14.2650    8.6460   -6.0520 C   0  0  0  0  0  0  0  0  0  0  0  0
  -13.7490   13.7740   -4.7100 C   0  0  0  0  0  0  0  0  0  0  0  0
  -12.4880   14.7040   -2.9630 C   0  0  0  0  0  0  0  0  0  0  0  0
  -10.4170   13.4110   -3.1040 C   0  0  0  0  0  0  0  0  0  0  0  0
   -9.0800   12.9720   -2.9180 C   0  0  0  0  0  0  0  0  0  0  0  0
   -8.2260   12.1790   -3.6740 C   0  0  0  0  0  0  0  0  0  0  0  0
   -7.1570   12.7980   -1.7890 C   0  0  0  0  0  0  0  0  0  0  0  0
  -10.9020   10.5820   -4.6380 C   0  0  0  0  0  0  0  0  0  0  0  0
  -10.6370    9.6060   -5.6020 C   0  0  0  0  0  0  0  0  0  0  0  0
  -15.0780   13.1260   -6.5800 C   0  0  1  0  0  0  0  0  0  0  0  0
  -17.5950   11.0490   -6.6630 O   0  0  0  0  0  0  0  0  0  0  0  0
  -11.0130   14.6960   -2.0740 S   0  0  0  0  0  0  0  0  0  0  0  0
  -15.1850   11.9880   -7.5660 C   0  0  0  0  0  0  0  0  0  0  0  0
  -21.2080   11.6860   -6.3090 N   0  0  0  0  0  0  0  0  0  0  0  0
  -13.8950   12.9230   -5.7410 O   0  0  0  0  0  0  0  0  0  0  0  0
  -15.3130   10.6500   -6.9000 C   0  0  0  0  0  0  0  0  0  0  0  0
   -8.3880   13.4380   -1.8020 O   0  0  0  0  0  0  0  0  0  0  0  0
  -13.4810   15.5650   -2.6640 N   0  0  0  0  0  0  0  0  0  0  0  0
  -10.3020    8.8820   -7.8140 O   0  0  0  0  0  0  0  0  0  0  0  0
   -7.9160    7.5030   -9.5120 N   0  0  0  0  0  0  0  0  0  0  0  0
  -14.0240   15.1810   -7.2890 O   0  0  0  0  0  0  0  0  0  0  0  0
   -5.6980    5.6690   -9.2830 N   0  0  0  0  0  0  0  0  0  0  0  0
  -16.0760   14.7720   -7.9720 O   0  0  0  0  0  0  0  0  0  0  0  0
  -22.0310   10.5240   -5.9720 C   0  0  0  0  0  0  0  0  0  0  0  0
  -16.6320    8.9620   -5.7870 C   0  0  0  0  0  0  0  0  0  0  0  0
  -15.4810    8.2120   -5.5840 C   0  0  0  0  0  0  0  0  0  0  0  0
  -14.1770    9.8730   -6.6860 C   0  0  0  0  0  0  0  0  0  0  0  0
  -14.5620   15.4760   -3.4270 C   0  0  0  0  0  0  0  0  0  0  0  0
  -12.5530   13.7720   -3.9910 C   0  0  0  0  0  0  0  0  0  0  0  0
  -11.3700   12.9980   -4.0730 C   0  0  0  0  0  0  0  0  0  0  0  0
   -7.0530   12.0660   -2.9380 C   0  0  0  0  0  0  0  0  0  0  0  0
  -11.1100   11.9150   -5.0500 C   0  0  0  0  0  0  0  0  0  0  0  0
  -10.9930   10.2120   -3.1730 C   0  0  0  0  0  0  0  0  0  0  0  0
  -10.5450    9.9220   -6.9570 C   0  0  0  0  0  0  0  0  0  0  0  0
   -9.7350    9.1580   -9.0990 C   0  0  0  0  0  0  0  0  0  0  0  0
   -9.3170    7.8690   -9.7620 C   0  0  0  0  0  0  0  0  0  0  0  0
   -7.7850    6.5700   -8.3850 C   0  0  0  0  0  0  0  0  0  0  0  0
   -6.3310    6.2620   -8.1080 C   0  0  0  0  0  0  0  0  0  0  0  0
   -4.2990    5.3120   -9.0200 C   0  0  0  0  0  0  0  0  0  0  0  0
   -5.8230    6.5820  -10.4180 C   0  0  0  0  0  0  0  0  0  0  0  0
   -7.2730    6.9140  -10.6960 C   0  0  0  0  0  0  0  0  0  0  0  0
  -10.7310   11.2420   -7.3440 C   0  0  0  0  0  0  0  0  0  0  0  0
  -10.9910   12.2270   -6.4020 C   0  0  0  0  0  0  0  0  0  0  0  0
  -15.0420   14.4490   -7.3440 C   0  0  0  0  0  0  0  0  0  0  0  0
  -10.4010    7.9480   -5.1150 Cl  0  0  0  0  0  0  0  0  0  0  0  0
  -23.2370   11.5230   -4.2150 F   0  0  0  0  0  0  0  0  0  0  0  0
  -21.3520   10.6140   -3.7330 F   0  0  0  0  0  0  0  0  0  0  0  0
  -23.0830    9.3880   -4.1680 F   0  0  0  0  0  0  0  0  0  0  0  0
   -6.2880   12.9250   -0.7710 F   0  0  0  0  0  0  0  0  0  0  0  0
  -18.9157   10.3209   -5.2228 H   0  0  0  0  0  0  0  0  0  0  0  0
  -19.2436    9.7898   -6.9017 H   0  0  0  0  0  0  0  0  0  0  0  0
  -18.6198   13.5618   -6.9370 H   0  0  0  0  0  0  0  0  0  0  0  0
  -20.9797   14.8022   -7.0726 H   0  0  0  0  0  0  0  0  0  0  0  0
  -13.3676    8.0229   -5.9239 H   0  0  0  0  0  0  0  0  0  0  0  0
   -8.4360   11.7311   -4.6565 H   0  0  0  0  0  0  0  0  0  0  0  0
  -15.9522   13.1568   -5.9130 H   0  0  0  0  0  0  0  0  0  0  0  0
  -16.0708   12.1523   -8.1971 H   0  0  0  0  0  0  0  0  0  0  0  0
  -14.2579   11.9752   -8.1579 H   0  0  0  0  0  0  0  0  0  0  0  0
  -16.8560   14.1626   -7.9881 H   0  0  0  0  0  0  0  0  0  0  0  0
  -21.4604    9.6102   -6.1939 H   0  0  0  0  0  0  0  0  0  0  0  0
  -22.9516   10.5787   -6.5716 H   0  0  0  0  0  0  0  0  0  0  0  0
  -17.6063    8.5838   -5.4439 H   0  0  0  0  0  0  0  0  0  0  0  0
  -15.5441    7.2574   -5.0410 H   0  0  0  0  0  0  0  0  0  0  0  0
  -13.1970   10.2395   -7.0254 H   0  0  0  0  0  0  0  0  0  0  0  0
  -15.3850   16.1756   -3.2191 H   0  0  0  0  0  0  0  0  0  0  0  0
   -6.1734   11.4762   -3.2354 H   0  0  0  0  0  0  0  0  0  0  0  0
  -10.7753   11.0970   -2.5571 H   0  0  0  0  0  0  0  0  0  0  0  0
  -12.0071    9.8496   -2.9487 H   0  0  0  0  0  0  0  0  0  0  0  0
  -10.2627    9.4205   -2.9487 H   0  0  0  0  0  0  0  0  0  0  0  0
  -10.4826    9.6654   -9.7264 H   0  0  0  0  0  0  0  0  0  0  0  0
   -8.8537    9.8046   -8.9753 H   0  0  0  0  0  0  0  0  0  0  0  0
   -9.9598    7.0601   -9.3846 H   0  0  0  0  0  0  0  0  0  0  0  0
   -9.4217    8.0171  -10.8469 H   0  0  0  0  0  0  0  0  0  0  0  0
   -8.2348    7.0220   -7.4887 H   0  0  0  0  0  0  0  0  0  0  0  0
   -8.3008    5.6330   -8.6418 H   0  0  0  0  0  0  0  0  0  0  0  0
   -5.8076    7.1936   -7.8469 H   0  0  0  0  0  0  0  0  0  0  0  0
   -6.2727    5.5462   -7.2748 H   0  0  0  0  0  0  0  0  0  0  0  0
   -4.1296    5.2688   -7.9340 H   0  0  0  0  0  0  0  0  0  0  0  0
   -4.0815    4.3296   -9.4644 H   0  0  0  0  0  0  0  0  0  0  0  0
   -3.6374    6.0701   -9.4644 H   0  0  0  0  0  0  0  0  0  0  0  0
   -5.2790    7.5111  -10.1927 H   0  0  0  0  0  0  0  0  0  0  0  0
   -5.4011    6.0916  -11.3077 H   0  0  0  0  0  0  0  0  0  0  0  0
   -7.3244    7.6321  -11.5277 H   0  0  0  0  0  0  0  0  0  0  0  0
   -7.8014    5.9847  -10.9554 H   0  0  0  0  0  0  0  0  0  0  0  0
  -10.6716   11.5101   -8.4092 H   0  0  0  0  0  0  0  0  0  0  0  0
  -11.1050   13.2713   -6.7284 H   0  0  0  0  0  0  0  0  0  0  0  0
  5  4  1  0
  6  5  2  0
  7  1  2  0
  7  6  1  0
 10  2  2  0
 13 12  1  0
 14 13  2  0
 17 16  2  0
 19  4  1  0
 19  3  1  0
 20 11  1  0
 20 12  1  0
 21 18  1  0
 22  1  1  0
 22  5  1  0
 23 18  1  0
 23 10  1  0
 24  3  1  0
 24 21  1  0
 25 15  1  0
 25 13  1  0
 26 11  1  0
 32  8  1  0
 32 22  1  0
 33  3  2  0
 34 33  1  0
 34  9  2  0
 35 24  2  0
 35  9  1  0
 36 26  2  0
 36  2  1  0
 37 11  2  0
 37 10  1  0
 38 37  1  0
 38 12  2  0
 39 15  2  0
 39 14  1  0
 40 16  1  0
 40 38  1  0
 41 16  1  0
 42 27  1  0
 42 17  1  0
 43 27  1  0
 44 43  1  0
 44 28  1  0
 45 28  1  0
 46 45  1  0
 46 30  1  0
 47 30  1  0
 48 30  1  0
 49 48  1  0
 49 28  1  0
 50 42  2  0
 51 40  2  0
 51 50  1  0
 52 31  1  0
 52 29  2  0
 52 18  1  0
 53 17  1  0
  8 54  1  6
 55  8  1  0
 56  8  1  0
 57 15  1  0
  4 58  1  0
  4 59  1  0
  6 60  1  0
  7 61  1  0
  9 62  1  0
 14 63  1  0
 18 64  1  1
 21 65  1  0
 21 66  1  0
 31 67  1  0
 32 68  1  0
 32 69  1  0
 33 70  1  0
 34 71  1  0
 35 72  1  0
 36 73  1  0
 39 74  1  0
 41 75  1  0
 41 76  1  0
 41 77  1  0
 43 78  1  0
 43 79  1  0
 44 80  1  0
 44 81  1  0
 45 82  1  0
 45 83  1  0
 46 84  1  0
 46 85  1  0
 47 86  1  0
 47 87  1  0
 47 88  1  0
 48 89  1  0
 48 90  1  0
 49 91  1  0
 49 92  1  0
 50 93  1  0
 51 94  1  0
M  END
$$$$
