70R
  CCTOOLS-0919241044

 94100  0  0  1  0  0  0  0  0999 V2000
   -7.8740    1.0930   -1.5500 N   0  0  0  0  0
   -0.5260    3.4580   -1.6560 N   0  0  0  0  0
   -2.6460    0.1090    0.9460 C   0  0  0  0  0
   -4.9430    0.6500    0.6500 C   0  0  0  0  0
   -5.9720    0.7620   -0.4450 C   0  0  0  0  0
   -5.7640    0.5300   -1.7620 C   0  0  0  0  0
   -6.9730    0.7450   -2.4330 C   0  0  0  0  0
   -8.4980    0.1790    1.6090 C   0  0  0  0  0
   -0.5230   -0.1900    2.6940 C   0  0  0  0  0
    0.4650    2.6840   -1.2450 C   0  0  0  0  0
    1.7410    4.6810   -0.8200 C   0  0  0  0  0
    3.8560    3.5740    0.0390 C   0  0  0  0  0
    5.1780    3.2150    0.5650 C   0  0  0  0  0
    6.1620    4.0890    0.9230 C   0  0  0  0  0
    6.8810    2.0180    1.2680 C   0  0  0  0  0
    2.7230    0.5600    1.0020 C   0  0  0  0  0
    2.8880   -0.8050    1.1100 C   0  0  0  0  0
   -0.9130    0.8090   -1.7140 C   0  0  0  0  0
   -3.6890    0.2560    0.0870 O   0  0  0  0  0
    3.3070    5.2170   -0.2300 S   0  0  0  0  0
   -1.2010   -0.5160   -1.0060 C   0  0  0  0  0
   -7.2660    1.1100   -0.2880 N   0  0  0  0  0
    0.3320    1.3360   -1.2500 O   0  0  0  0  0
   -1.3990   -0.2660    0.4670 C   0  0  0  0  0
    5.6300    1.9620    0.7840 O   0  0  0  0  0
    0.6840    5.3790   -1.2540 N   0  0  0  0  0
    3.5710   -2.8750    0.1530 O   0  0  0  0  0
    2.8740   -5.6100   -0.4800 N   0  0  0  0  0
   -1.9260    0.1790   -3.8750 O   0  0  0  0  0
    0.8200   -7.5590   -0.7840 N   0  0  0  0  0
    0.2060    0.7520   -3.7870 O   0  0  0  0  0
   -7.9200    1.4480    0.9790 C   0  0  0  0  0
   -2.8250    0.3390    2.3020 C   0  0  0  0  0
   -1.7630    0.1890    3.1730 C   0  0  0  0  0
   -0.3400   -0.4090    1.3410 C   0  0  0  0  0
   -0.4090    4.7740   -1.6570 C   0  0  0  0  0
    1.6680    3.2860   -0.7990 C   0  0  0  0  0
    2.8920    2.6760   -0.3030 C   0  0  0  0  0
    7.2490    3.3150    1.3690 C   0  0  0  0  0
    3.0730    1.2130   -0.1810 C   0  0  0  0  0
    2.1580    1.3450    2.1580 C   0  0  0  0  0
    3.4090   -1.5290    0.0440 C   0  0  0  0  0
    4.1110   -3.5570   -0.9800 C   0  0  0  0  0
    4.2190   -5.0520   -0.6720 C   0  0  0  0  0
    2.1850   -5.7790   -1.7670 C   0  0  0  0  0
    0.7620   -6.2870   -1.5180 C   0  0  0  0  0
   -0.5250   -8.1170   -0.5920 C   0  0  0  0  0
    1.5090   -7.3890    0.5030 C   0  0  0  0  0
    2.9310   -6.8820    0.2550 C   0  0  0  0  0
    3.7640   -0.8830   -1.1320 C   0  0  0  0  0
    3.5960    0.4810   -1.2490 C   0  0  0  0  0
   -0.8360    0.5780   -3.2010 C   0  0  0  0  0
    2.4460   -1.6190    2.5780 CL  0  0  0  0  0
   -7.4660   -0.7350    1.8450 F   0  0  0  0  0
   -9.1230    0.5020    2.8180 F   0  0  0  0  0
   -9.4340   -0.3890    0.7380 F   0  0  0  0  0
    7.6450    0.9550    1.6010 F   0  0  0  0  0
   -4.8320    1.6150    1.1440 H   0  0  0  0  0
   -5.2650   -0.0950    1.3770 H   0  0  0  0  0
   -4.8300    0.2330   -2.2150 H   0  0  0  0  0
   -7.1340    0.6410   -3.4950 H   0  0  0  0  0
    0.3060   -0.3070    3.3760 H   0  0  0  0  0
    6.1160    5.1670    0.8730 H   0  0  0  0  0
   -1.7110    1.5190   -1.4970 H   0  0  0  0  0
   -2.1040   -0.9620   -1.4230 H   0  0  0  0  0
   -0.3610   -1.1950   -1.1490 H   0  0  0  0  0
   -1.8280    0.0430   -4.8280 H   0  0  0  0  0
   -8.7240    2.1610    0.7940 H   0  0  0  0  0
   -7.1910    1.8910    1.6580 H   0  0  0  0  0
   -3.7940    0.6360    2.6770 H   0  0  0  0  0
   -1.9050    0.3590    4.2300 H   0  0  0  0  0
    0.6310   -0.7010    0.9690 H   0  0  0  0  0
   -1.2400    5.3720   -2.0010 H   0  0  0  0  0
    8.1980    3.6870    1.7280 H   0  0  0  0  0
    2.9710    1.6780    2.8030 H   0  0  0  0  0
    1.6170    2.2120    1.7790 H   0  0  0  0  0
    1.4780    0.7130    2.7290 H   0  0  0  0  0
    3.4570   -3.4100   -1.8390 H   0  0  0  0  0
    5.1010   -3.1600   -1.2050 H   0  0  0  0  0
    4.8040   -5.1940    0.2370 H   0  0  0  0  0
    4.7080   -5.5600   -1.5030 H   0  0  0  0  0
    2.1440   -4.8220   -2.2860 H   0  0  0  0  0
    2.7270   -6.5010   -2.3770 H   0  0  0  0  0
    0.2590   -6.4410   -2.4730 H   0  0  0  0  0
    0.2120   -5.5520   -0.9310 H   0  0  0  0  0
   -0.9870   -8.2950   -1.5630 H   0  0  0  0  0
   -0.4530   -9.0580   -0.0460 H   0  0  0  0  0
   -1.1330   -7.4130   -0.0240 H   0  0  0  0  0
    0.9660   -6.6670    1.1140 H   0  0  0  0  0
    1.5490   -8.3470    1.0220 H   0  0  0  0  0
    3.4820   -7.6160   -0.3330 H   0  0  0  0  0
    3.4340   -6.7280    1.2090 H   0  0  0  0  0
    4.1680   -1.4490   -1.9570 H   0  0  0  0  0
    3.8730    0.9840   -2.1640 H   0  0  0  0  0
  1 22  1  0  0  0
  2 36  1  0  0  0
  3 33  2  0  0  0
  4 58  1  0  0  0
  4 59  1  0  0  0
  5 22  1  0  0  0
  5  4  1  0  0  0
  6  5  2  0  0  0
  6 60  1  0  0  0
  7  6  1  0  0  0
  7  1  2  0  0  0
  7 61  1  0  0  0
  8 54  1  0  0  0
  8 56  1  0  0  0
  8 55  1  0  0  0
  9 34  2  0  0  0
  9 62  1  0  0  0
 10  2  2  0  0  0
 10 37  1  0  0  0
 11 26  1  0  0  0
 11 20  1  0  0  0
 12 13  1  0  0  0
 12 20  1  0  0  0
 13 25  1  0  0  0
 14 39  1  0  0  0
 14 13  2  0  0  0
 14 63  1  0  0  0
 15 57  1  0  0  0
 16 41  1  0  0  0
 17 53  1  0  0  0
 17 16  2  0  0  0
 18 23  1  0  0  0
 18 64  1  0  0  0
 19  3  1  0  0  0
 19  4  1  0  0  0
 21 24  1  0  0  0
 21 18  1  0  0  0
 21 65  1  0  0  0
 21 66  1  0  0  0
 22 32  1  0  0  0
 23 10  1  0  0  0
 24 35  2  0  0  0
 24  3  1  0  0  0
 25 15  1  0  0  0
 27 42  1  0  0  0
 28 45  1  0  0  0
 29 67  1  0  0  0
 30 47  1  0  0  0
 30 46  1  0  0  0
 31 52  2  0  0  0
 32  8  1  0  0  0
 32 68  1  0  0  0
 32 69  1  0  0  0
 33 34  1  0  0  0
 33 70  1  0  0  0
 34 71  1  0  0  0
 35  9  1  0  0  0
 35 72  1  0  0  0
 36 26  2  0  0  0
 36 73  1  0  0  0
 37 11  2  0  0  0
 38 37  1  0  0  0
 38 12  2  0  0  0
 39 15  2  0  0  0
 39 74  1  0  0  0
 40 16  1  0  0  0
 40 38  1  0  0  0
 41 75  1  0  0  0
 41 76  1  0  0  0
 41 77  1  0  0  0
 42 17  1  0  0  0
 43 27  1  0  0  0
 43 78  1  0  0  0
 43 79  1  0  0  0
 44 28  1  0  0  0
 44 43  1  0  0  0
 44 80  1  0  0  0
 44 81  1  0  0  0
 45 46  1  0  0  0
 45 82  1  0  0  0
 45 83  1  0  0  0
 46 84  1  0  0  0
 46 85  1  0  0  0
 47 86  1  0  0  0
 47 87  1  0  0  0
 47 88  1  0  0  0
 48 30  1  0  0  0
 48 89  1  0  0  0
 48 90  1  0  0  0
 49 48  1  0  0  0
 49 28  1  0  0  0
 49 91  1  0  0  0
 49 92  1  0  0  0
 50 42  2  0  0  0
 50 51  1  0  0  0
 50 93  1  0  0  0
 51 40  2  0  0  0
 51 94  1  0  0  0
 52 29  1  0  0  0
 52 18  1  0  0  0
M  END
$$$$
