EF2
  CCTOOLS-0919241030

 29 31  0  0  1  0  0  0  0  0999 V2000
    1.3090    0.1630    2.0520 O   0  0  0  0  0
    1.9260   -0.0360    1.0280 C   0  0  0  0  0
    3.2030    0.3650    0.9410 N   0  0  0  0  0
    3.9430    0.1870   -0.1640 C   0  0  0  0  0
    5.0890    0.5820   -0.1820 O   0  0  0  0  0
    3.3760   -0.4930   -1.3820 C   0  0  0  0  0
    1.8650   -0.2490   -1.4380 C   0  0  0  0  0
    1.2460   -0.7340   -0.1190 C   0  0  0  0  0
   -0.1850   -0.4190   -0.1060 N   0  0  0  0  0
   -4.5090    1.2400   -0.1280 C   0  0  0  0  0
   -3.1920    1.6660   -0.2070 C   0  0  0  0  0
   -2.1660    0.7370   -0.1520 C   0  0  0  0  0
   -2.4670   -0.6340   -0.0150 C   0  0  0  0  0
   -0.0440    1.8460   -0.3160 O   0  0  0  0  0
   -1.0060   -2.5320    0.1210 O   0  0  0  0  0
   -3.7870   -1.0440    0.0630 C   0  0  0  0  0
   -4.8040   -0.1040    0.0060 C   0  0  0  0  0
   -1.1650   -1.3330    0.0120 C   0  0  0  0  0
   -0.6910    0.8240   -0.2040 C   0  0  0  0  0
    3.6080    0.8000    1.7070 H   0  0  0  0  0
    1.3830   -1.8110   -0.0230 H   0  0  0  0  0
    3.8450   -0.0850   -2.2780 H   0  0  0  0  0
    3.5710   -1.5640   -1.3240 H   0  0  0  0  0
    1.6700    0.8150   -1.5670 H   0  0  0  0  0
    1.4340   -0.8070   -2.2700 H   0  0  0  0  0
   -5.3100    1.9630   -0.1720 H   0  0  0  0  0
   -2.9670    2.7170   -0.3130 H   0  0  0  0  0
   -5.8340   -0.4230    0.0660 H   0  0  0  0  0
   -4.0240   -2.0930    0.1670 H   0  0  0  0  0
  1  2  2  0  0  0
  2  3  1  0  0  0
  2  8  1  0  0  0
  3  4  1  0  0  0
  3 20  1  0  0  0
  4  5  2  0  0  0
  4  6  1  0  0  0
  6  7  1  0  0  0
  6 22  1  0  0  0
  6 23  1  0  0  0
  7  8  1  0  0  0
  7 24  1  0  0  0
  7 25  1  0  0  0
  8  9  1  0  0  0
  8 21  1  0  0  0
  9 18  1  0  0  0
  9 19  1  0  0  0
 10 11  1  0  0  0
 10 17  2  0  0  0
 10 26  1  0  0  0
 11 12  2  0  0  0
 11 27  1  0  0  0
 12 13  1  0  0  0
 12 19  1  0  0  0
 13 16  2  0  0  0
 13 18  1  0  0  0
 14 19  2  0  0  0
 15 18  2  0  0  0
 16 17  1  0  0  0
 16 29  1  0  0  0
 17 28  1  0  0  0
M  END
$$$$
