@<TRIPOS>MOLECULE
*****
 25 26 0 0 0
SMALL
GASTEIGER

@<TRIPOS>ATOM
      1 H           1.2154   -0.0816    0.2460 H       1  UNL1        0.3062
      2 N           2.2130   -0.0252    0.0385 N.pl3   1  UNL1       -0.1295
      3 C           2.7405    0.9119    0.7474 C.cat   1  UNL1        0.3811
      4 N           1.9859    1.6883    1.5562 N.pl3   1  UNL1       -0.2889
      5 N           4.0671    1.1756    0.6380 N.pl3   1  UNL1       -0.2438
      6 C           4.8896    2.0853    1.3173 C.ar    1  UNL1        0.1005
      7 C           4.6411    2.5136    2.6240 C.ar    1  UNL1       -0.0226
      8 C           5.3831    3.5442    3.2051 C.ar    1  UNL1       -0.0508
      9 C           6.4097    4.1703    2.4897 C.ar    1  UNL1       -0.0177
     10 C           7.1440    5.2273    3.0481 C.ar    1  UNL1       -0.0540
     11 C           8.1639    5.8438    2.3234 C.ar    1  UNL1       -0.0612
     12 C           8.4656    5.4058    1.0375 C.ar    1  UNL1       -0.0612
     13 C           7.7419    4.3559    0.4688 C.ar    1  UNL1       -0.0539
     14 C           6.7073    3.7300    1.1815 C.ar    1  UNL1       -0.0146
     15 C           5.9449    2.6911    0.6155 C.ar    1  UNL1       -0.0155
     16 H           0.9885    1.6657    1.3831 H       1  UNL1        0.2547
     17 H           2.3220    2.6408    1.6270 H       1  UNL1        0.2547
     18 H           4.5194    0.6266   -0.0841 H       1  UNL1        0.2648
     19 H           3.8665    2.0370    3.2199 H       1  UNL1        0.0652
     20 H           5.1435    3.8573    4.2184 H       1  UNL1        0.0625
     21 H           6.9203    5.5847    4.0510 H       1  UNL1        0.0624
     22 H           8.7235    6.6655    2.7651 H       1  UNL1        0.0618
     23 H           9.2618    5.8844    0.4728 H       1  UNL1        0.0618
     24 H           7.9891    4.0337   -0.5404 H       1  UNL1        0.0624
     25 H           6.1518    2.3775   -0.4050 H       1  UNL1        0.0658
@<TRIPOS>BOND
     1     1     2    1
     2     2     3    2
     3     3     4    1
     4     3     5    1
     5     5     6    1
     6     6     7   ar
     7     7     8   ar
     8     8     9   ar
     9     9    10   ar
    10    10    11   ar
    11    11    12   ar
    12    12    13   ar
    13    13    14   ar
    14     9    14   ar
    15    14    15   ar
    16     6    15   ar
    17     4    16    1
    18     4    17    1
    19     5    18    1
    20     7    19    1
    21     8    20    1
    22    10    21    1
    23    11    22    1
    24    12    23    1
    25    13    24    1
    26    15    25    1
