@<TRIPOS>MOLECULE
*****
 22 22 0 0 0
SMALL
GASTEIGER

@<TRIPOS>ATOM
      1 H           4.4349    2.3924   -2.0767 H       1  UNL1        0.3062
      2 N           4.6721    2.3613   -1.0845 N.pl3   1  UNL1       -0.1295
      3 C           3.9693    1.4762   -0.4735 C.cat   1  UNL1        0.3810
      4 N           3.0276    0.7698   -1.1477 N.pl3   1  UNL1       -0.2889
      5 N           4.0239    1.1532    0.8487 N.pl3   1  UNL1       -0.2438
      6 C           4.9281    1.6234    1.8192 C.ar    1  UNL1        0.1000
      7 C           4.5590    1.5680    3.1740 C.ar    1  UNL1       -0.0224
      8 C           5.3604    2.1415    4.1713 C.ar    1  UNL1       -0.0445
      9 C           6.5472    2.7944    3.8217 C.ar    1  UNL1        0.0590
     10 C           7.4193    3.4559    4.8239 C.2     1  UNL1        0.3368
     11 O           8.6302    3.5284    4.7085 O.2     1  UNL1       -0.2451
     12 O           6.7403    4.0138    5.8490 O.3     1  UNL1       -0.4771
     13 C           6.9504    2.8169    2.4866 C.ar    1  UNL1       -0.0445
     14 C           6.1413    2.2444    1.5007 C.ar    1  UNL1       -0.0224
     15 H           2.8001    1.1419   -2.0623 H       1  UNL1        0.2547
     16 H           2.1861    0.5641   -0.6265 H       1  UNL1        0.2547
     17 H           3.4235    0.4089    1.1664 H       1  UNL1        0.2648
     18 H           3.6250    1.0919    3.4653 H       1  UNL1        0.0652
     19 H           5.0486    2.0574    5.2088 H       1  UNL1        0.0627
     20 H           5.7768    4.0715    5.7159 H       1  UNL1        0.2954
     21 H           7.8861    3.2923    2.1983 H       1  UNL1        0.0627
     22 H           6.4849    2.2867    0.4697 H       1  UNL1        0.0652
@<TRIPOS>BOND
     1     1     2    1
     2     2     3    2
     3     3     4    1
     4     3     5    1
     5     5     6    1
     6     6     7   ar
     7     7     8   ar
     8     8     9   ar
     9     9    10    1
    10    10    11    2
    11    10    12    1
    12     9    13   ar
    13    13    14   ar
    14     6    14   ar
    15     4    15    1
    16     4    16    1
    17     5    17    1
    18     7    18    1
    19     8    19    1
    20    12    20    1
    21    13    21    1
    22    14    22    1
