@<TRIPOS>MOLECULE
*****
 51 54 0 0 0
SMALL
GASTEIGER

@<TRIPOS>ATOM
      1 C           1.6557    4.1640    1.0567 C.3     1  UNL1       -0.0590
      2 C           0.6626    4.3541   -0.1159 C.3     1  UNL1       -0.0254
      3 C          -0.2557    3.0850   -0.1922 C.3     1  UNL1       -0.0404
      4 C          -0.0567    2.2197   -1.4323 C.3     1  UNL1        0.0063
      5 C           1.4104    2.0471   -1.7150 C.2     1  UNL1        0.1337
      6 O           1.9166    0.9397   -1.8625 O.2     1  UNL1       -0.2974
      7 C           2.2241    3.3136   -1.8862 C.3     1  UNL1        0.0092
      8 C           1.4070    4.5413   -1.4779 C.3     1  UNL1       -0.0287
      9 C           2.2662    5.8100   -1.4975 C.3     1  UNL1       -0.0491
     10 C           1.3903    7.0457   -1.3221 C.3     1  UNL1       -0.0494
     11 C           0.5078    6.9801   -0.0713 C.3     1  UNL1       -0.0343
     12 C          -0.2275    5.6146    0.1125 C.3     1  UNL1       -0.0322
     13 C          -0.9924    5.6300    1.4612 C.3     1  UNL1       -0.0489
     14 C          -2.0520    6.7478    1.4788 C.3     1  UNL1       -0.0447
     15 C          -1.4191    8.1261    1.2062 C.3     1  UNL1       -0.0030
     16 C          -0.5749    8.5482    2.4456 C.3     1  UNL1       -0.0569
     17 C          -2.3705    9.2884    0.8301 C.3     1  UNL1        0.0609
     18 O          -3.3193    8.9533   -0.1818 O.3     1  UNL1       -0.3912
     19 C          -1.4141   10.3216    0.1998 C.3     1  UNL1       -0.0261
     20 C          -0.2774    9.5018   -0.4487 C.3     1  UNL1       -0.0470
     21 C          -0.6010    8.0484   -0.1050 C.3     1  UNL1       -0.0301
     22 H           1.1326    3.9076    1.9845 H       1  UNL1        0.0235
     23 H           2.3599    3.3483    0.8625 H       1  UNL1        0.0235
     24 H           2.2404    5.0657    1.2585 H       1  UNL1        0.0235
     25 H          -1.3150    3.3645   -0.1728 H       1  UNL1        0.0275
     26 H          -0.1050    2.4583    0.6964 H       1  UNL1        0.0275
     27 H          -0.5304    2.6728   -2.3110 H       1  UNL1        0.0342
     28 H          -0.5197    1.2387   -1.2852 H       1  UNL1        0.0342
     29 H           2.5011    3.3928   -2.9439 H       1  UNL1        0.0344
     30 H           3.1385    3.2247   -1.2936 H       1  UNL1        0.0344
     31 H           0.6318    4.6788   -2.2483 H       1  UNL1        0.0310
     32 H           3.0416    5.7805   -0.7211 H       1  UNL1        0.0268
     33 H           2.7982    5.8896   -2.4543 H       1  UNL1        0.0268
     34 H           0.7659    7.1640   -2.2155 H       1  UNL1        0.0268
     35 H           2.0339    7.9330   -1.2708 H       1  UNL1        0.0268
     36 H           1.1694    7.1398    0.7869 H       1  UNL1        0.0306
     37 H          -0.9926    5.5652   -0.6775 H       1  UNL1        0.0309
     38 H          -0.2921    5.7725    2.2931 H       1  UNL1        0.0268
     39 H          -1.4965    4.6752    1.6399 H       1  UNL1        0.0268
     40 H          -2.8026    6.4934    0.7240 H       1  UNL1        0.0271
     41 H          -2.5766    6.7479    2.4417 H       1  UNL1        0.0271
     42 H          -0.7535    9.5884    2.7385 H       1  UNL1        0.0236
     43 H          -0.8300    7.9508    3.3284 H       1  UNL1        0.0236
     44 H           0.5006    8.4464    2.2857 H       1  UNL1        0.0236
     45 H          -2.9170    9.6944    1.6868 H       1  UNL1        0.0599
     46 H          -3.6741    8.0680   -0.0141 H       1  UNL1        0.2098
     47 H          -0.9867   10.9764    0.9667 H       1  UNL1        0.0290
     48 H          -1.9145   10.9553   -0.5399 H       1  UNL1        0.0290
     49 H           0.6982    9.8162   -0.0688 H       1  UNL1        0.0269
     50 H          -0.2783    9.6458   -1.5362 H       1  UNL1        0.0269
     51 H          -1.2860    7.7240   -0.9071 H       1  UNL1        0.0310
@<TRIPOS>BOND
     1     1     2    1
     2     2     3    1
     3     3     4    1
     4     4     5    1
     5     5     6    2
     6     5     7    1
     7     7     8    1
     8     2     8    1
     9     8     9    1
    10     9    10    1
    11    10    11    1
    12    11    12    1
    13     2    12    1
    14    12    13    1
    15    13    14    1
    16    14    15    1
    17    15    16    1
    18    15    17    1
    19    17    18    1
    20    17    19    1
    21    19    20    1
    22    20    21    1
    23    11    21    1
    24    15    21    1
    25     1    22    1
    26     1    23    1
    27     1    24    1
    28     3    25    1
    29     3    26    1
    30     4    27    1
    31     4    28    1
    32     7    29    1
    33     7    30    1
    34     8    31    1
    35     9    32    1
    36     9    33    1
    37    10    34    1
    38    10    35    1
    39    11    36    1
    40    12    37    1
    41    13    38    1
    42    13    39    1
    43    14    40    1
    44    14    41    1
    45    16    42    1
    46    16    43    1
    47    16    44    1
    48    17    45    1
    49    18    46    1
    50    19    47    1
    51    19    48    1
    52    20    49    1
    53    20    50    1
    54    21    51    1
