@<TRIPOS>MOLECULE
*****
 63 66 0 0 0
SMALL
GASTEIGER

@<TRIPOS>ATOM
      1 C           4.9397    2.0346   -0.3712 C.3     1  UNL1       -0.0442
      2 C           4.6854    1.3924    1.0052 C.3     1  UNL1        0.0262
      3 C           5.9334    0.6744    1.5313 C.3     1  UNL1       -0.0442
      4 C           4.3022    2.5075    1.9996 C.3     1  UNL1       -0.0442
      5 N           3.5529    0.4745    0.9218 N.am    1  UNL1       -0.3103
      6 C           3.5030   -0.6058    0.0713 C.2     1  UNL1        0.2170
      7 O           4.4429   -0.9915   -0.6130 O.2     1  UNL1       -0.2755
      8 C           2.1432   -1.2654    0.0536 C.3     1  UNL1        0.0412
      9 C           2.1235   -2.5544   -0.8334 C.3     1  UNL1       -0.0411
     10 C           0.7413   -2.5928   -1.5111 C.3     1  UNL1       -0.0487
     11 C          -0.0184   -1.5845   -0.6770 C.3     1  UNL1       -0.0318
     12 C          -1.4173   -1.1030   -1.0060 C.3     1  UNL1       -0.0340
     13 C          -2.3737   -2.1819   -1.5601 C.3     1  UNL1       -0.0480
     14 C          -3.3561   -2.7916   -0.5542 C.3     1  UNL1       -0.0334
     15 C          -3.9045   -1.8346    0.5169 C.3     1  UNL1        0.0325
     16 N          -5.3269   -1.9265    0.7521 N.am    1  UNL1       -0.3082
     17 C          -5.8964   -1.1549    1.7366 C.2     1  UNL1        0.2369
     18 O          -6.9884   -1.4168    2.2200 O.2     1  UNL1       -0.2708
     19 C          -5.1072    0.0156    2.1971 C.2     1  UNL1       -0.0032
     20 C          -3.9891    0.4024    1.5723 C.2     1  UNL1       -0.0712
     21 C          -3.4493   -0.3438    0.3642 C.3     1  UNL1        0.0078
     22 C          -4.0495    0.3400   -0.8907 C.3     1  UNL1       -0.0541
     23 C          -1.9071   -0.4728    0.3246 C.3     1  UNL1       -0.0274
     24 C          -1.0681    0.7210    0.7824 C.3     1  UNL1       -0.0486
     25 C           0.3934    0.7715    0.3078 C.3     1  UNL1       -0.0464
     26 C           0.9771   -0.4068   -0.5256 C.3     1  UNL1       -0.0179
     27 C           1.4343    0.2239   -1.8811 C.3     1  UNL1       -0.0586
     28 H           5.9230    2.5146   -0.4139 H       1  UNL1        0.0250
     29 H           4.1819    2.7948   -0.5985 H       1  UNL1        0.0250
     30 H           4.8978    1.3116   -1.1906 H       1  UNL1        0.0250
     31 H           6.8045    1.3356    1.5123 H       1  UNL1        0.0250
     32 H           5.7884    0.3433    2.5695 H       1  UNL1        0.0250
     33 H           6.1837   -0.2145    0.9459 H       1  UNL1        0.0250
     34 H           4.0336    2.0865    2.9763 H       1  UNL1        0.0250
     35 H           5.1203    3.2133    2.1451 H       1  UNL1        0.0250
     36 H           3.4258    3.0640    1.6470 H       1  UNL1        0.0250
     37 H           2.8679    0.5106    1.6642 H       1  UNL1        0.1492
     38 H           1.9136   -1.5572    1.0899 H       1  UNL1        0.0400
     39 H           2.9103   -2.5814   -1.5945 H       1  UNL1        0.0273
     40 H           2.2608   -3.4359   -0.1963 H       1  UNL1        0.0273
     41 H           0.8000   -2.2987   -2.5641 H       1  UNL1        0.0268
     42 H           0.3095   -3.5978   -1.4674 H       1  UNL1        0.0268
     43 H          -0.1087   -2.0932    0.2987 H       1  UNL1        0.0309
     44 H          -1.3429   -0.3289   -1.7791 H       1  UNL1        0.0307
     45 H          -1.8284   -2.9763   -2.0683 H       1  UNL1        0.0269
     46 H          -2.9721   -1.7147   -2.3516 H       1  UNL1        0.0269
     47 H          -2.8293   -3.6078   -0.0389 H       1  UNL1        0.0283
     48 H          -4.1727   -3.2725   -1.1055 H       1  UNL1        0.0283
     49 H          -3.4828   -2.2116    1.4671 H       1  UNL1        0.0507
     50 H          -5.8180   -2.7977    0.5881 H       1  UNL1        0.1493
     51 H          -5.5223    0.5685    3.0374 H       1  UNL1        0.0666
     52 H          -3.4902    1.3086    1.9105 H       1  UNL1        0.0580
     53 H          -3.3056    0.5646   -1.6588 H       1  UNL1        0.0239
     54 H          -4.5247    1.2999   -0.6566 H       1  UNL1        0.0239
     55 H          -4.8183   -0.2847   -1.3602 H       1  UNL1        0.0239
     56 H          -1.6800   -1.2037    1.1197 H       1  UNL1        0.0312
     57 H          -1.0433    0.7067    1.8825 H       1  UNL1        0.0268
     58 H          -1.5612    1.6637    0.5197 H       1  UNL1        0.0268
     59 H           1.0247    1.0174    1.1630 H       1  UNL1        0.0271
     60 H           0.4344    1.6829   -0.3048 H       1  UNL1        0.0271
     61 H           0.5798    0.5015   -2.5050 H       1  UNL1        0.0235
     62 H           2.0806   -0.4297   -2.4732 H       1  UNL1        0.0235
     63 H           2.0189    1.1367   -1.7053 H       1  UNL1        0.0235
@<TRIPOS>BOND
     1     1     2    1
     2     2     3    1
     3     2     4    1
     4     2     5    1
     5     5     6   am
     6     6     7    2
     7     6     8    1
     8     8     9    1
     9     9    10    1
    10    10    11    1
    11    11    12    1
    12    12    13    1
    13    13    14    1
    14    14    15    1
    15    15    16    1
    16    16    17   am
    17    17    18    2
    18    17    19    1
    19    19    20    2
    20    20    21    1
    21    15    21    1
    22    21    22    1
    23    21    23    1
    24    12    23    1
    25    23    24    1
    26    24    25    1
    27    25    26    1
    28    11    26    1
    29     8    26    1
    30    26    27    1
    31     1    28    1
    32     1    29    1
    33     1    30    1
    34     3    31    1
    35     3    32    1
    36     3    33    1
    37     4    34    1
    38     4    35    1
    39     4    36    1
    40     5    37    1
    41     8    38    1
    42     9    39    1
    43     9    40    1
    44    10    41    1
    45    10    42    1
    46    11    43    1
    47    12    44    1
    48    13    45    1
    49    13    46    1
    50    14    47    1
    51    14    48    1
    52    15    49    1
    53    16    50    1
    54    19    51    1
    55    20    52    1
    56    22    53    1
    57    22    54    1
    58    22    55    1
    59    23    56    1
    60    24    57    1
    61    24    58    1
    62    25    59    1
    63    25    60    1
    64    27    61    1
    65    27    62    1
    66    27    63    1
