@<TRIPOS>MOLECULE
*****
 49 52 0 0 0
SMALL
GASTEIGER

@<TRIPOS>ATOM
      1 C           3.3244   -0.4676    0.1948 C.3     1  UNL1       -0.0569
      2 C           2.2003    0.1805    1.0420 C.3     1  UNL1       -0.0030
      3 C           1.5427   -0.9011    1.9361 C.3     1  UNL1       -0.0447
      4 C           0.6112   -1.8641    1.1535 C.3     1  UNL1       -0.0486
      5 C          -0.3965   -1.1387    0.2005 C.3     1  UNL1       -0.0288
      6 C           0.4339   -0.2155   -0.7460 C.3     1  UNL1       -0.0337
      7 C          -0.3722    0.4024   -1.8841 C.3     1  UNL1       -0.0459
      8 C          -1.0944   -0.6940   -2.6623 C.3     1  UNL1       -0.0305
      9 C          -2.0657   -1.3542   -1.7231 C.2     1  UNL1       -0.0601
     10 C          -3.3857   -1.2321   -1.9715 C.2     1  UNL1       -0.0194
     11 C          -4.3443   -1.5939   -0.9101 C.2     1  UNL1        0.1561
     12 O          -5.5173   -1.7943   -1.1829 O.2     1  UNL1       -0.2927
     13 C          -3.8151   -1.5401    0.4890 C.3     1  UNL1        0.0107
     14 C          -2.5698   -2.4242    0.5648 C.3     1  UNL1       -0.0367
     15 C          -1.4686   -2.0605   -0.4942 C.3     1  UNL1       -0.0072
     16 C          -0.8491   -3.3939   -0.9621 C.3     1  UNL1       -0.0556
     17 C           1.0625    0.8087    0.2013 C.3     1  UNL1       -0.0301
     18 C           1.5923    2.1598   -0.2299 C.3     1  UNL1       -0.0470
     19 C           2.1139    2.6547    1.1262 C.3     1  UNL1       -0.0261
     20 C           2.8284    1.4306    1.7366 C.3     1  UNL1        0.0609
     21 O           2.7402    1.4133    3.1439 O.3     1  UNL1       -0.3912
     22 H           3.6962    0.2162   -0.5760 H       1  UNL1        0.0236
     23 H           4.1740   -0.7370    0.8338 H       1  UNL1        0.0236
     24 H           3.0124   -1.3874   -0.3069 H       1  UNL1        0.0236
     25 H           0.9358   -0.4179    2.7161 H       1  UNL1        0.0271
     26 H           2.3149   -1.4816    2.4595 H       1  UNL1        0.0271
     27 H           0.0688   -2.4810    1.8805 H       1  UNL1        0.0268
     28 H           1.2340   -2.5513    0.5709 H       1  UNL1        0.0268
     29 H          -0.9984   -0.4747    0.8418 H       1  UNL1        0.0312
     30 H           1.2049   -0.8218   -1.2354 H       1  UNL1        0.0307
     31 H          -1.0927    1.1318   -1.4934 H       1  UNL1        0.0271
     32 H           0.3008    0.9421   -2.5614 H       1  UNL1        0.0271
     33 H          -0.3840   -1.4280   -3.0631 H       1  UNL1        0.0310
     34 H          -1.5981   -0.2470   -3.5251 H       1  UNL1        0.0310
     35 H          -3.7953   -0.7747   -2.8587 H       1  UNL1        0.0652
     36 H          -3.5884   -0.4940    0.7449 H       1  UNL1        0.0345
     37 H          -4.5810   -1.8964    1.1839 H       1  UNL1        0.0345
     38 H          -2.1750   -2.3646    1.5851 H       1  UNL1        0.0278
     39 H          -2.8961   -3.4611    0.4317 H       1  UNL1        0.0278
     40 H           0.0162   -3.2457   -1.6080 H       1  UNL1        0.0238
     41 H          -0.5326   -4.0108   -0.1166 H       1  UNL1        0.0238
     42 H          -1.5783   -3.9854   -1.5308 H       1  UNL1        0.0238
     43 H           0.2574    1.0901    0.9013 H       1  UNL1        0.0310
     44 H           0.8029    2.8162   -0.6111 H       1  UNL1        0.0269
     45 H           2.3896    2.0896   -0.9723 H       1  UNL1        0.0269
     46 H           1.2795    2.9668    1.7709 H       1  UNL1        0.0290
     47 H           2.7748    3.5172    1.0303 H       1  UNL1        0.0290
     48 H           3.8983    1.5157    1.4902 H       1  UNL1        0.0599
     49 H           1.8093    1.4685    3.3914 H       1  UNL1        0.2098
@<TRIPOS>BOND
     1     1     2    1
     2     2     3    1
     3     3     4    1
     4     4     5    1
     5     5     6    1
     6     6     7    1
     7     7     8    1
     8     8     9    1
     9     9    10    2
    10    10    11    1
    11    11    12    2
    12    11    13    1
    13    13    14    1
    14    14    15    1
    15     9    15    1
    16     5    15    1
    17    15    16    1
    18     6    17    1
    19     2    17    1
    20    17    18    1
    21    18    19    1
    22    19    20    1
    23     2    20    1
    24    20    21    1
    25     1    22    1
    26     1    23    1
    27     1    24    1
    28     3    25    1
    29     3    26    1
    30     4    27    1
    31     4    28    1
    32     5    29    1
    33     6    30    1
    34     7    31    1
    35     7    32    1
    36     8    33    1
    37     8    34    1
    38    10    35    1
    39    13    36    1
    40    13    37    1
    41    14    38    1
    42    14    39    1
    43    16    40    1
    44    16    41    1
    45    16    42    1
    46    17    43    1
    47    18    44    1
    48    18    45    1
    49    19    46    1
    50    19    47    1
    51    20    48    1
    52    21    49    1
