@<TRIPOS>MOLECULE
*****
 26 26 0 0 0
SMALL
GASTEIGER

@<TRIPOS>ATOM
      1 H           3.4656    2.3899   -1.7178 H       1  UNL1        0.3062
      2 N           3.8188    1.4601   -1.9432 N.pl3   1  UNL1       -0.1298
      3 C           3.5359    0.6441   -0.9966 C.cat   1  UNL1        0.3762
      4 N           2.8282    0.9986    0.0931 N.pl3   1  UNL1       -0.2893
      5 N           3.8638   -0.6661   -0.9828 N.pl3   1  UNL1       -0.2758
      6 C           4.6242   -1.2904   -2.0547 C.3     1  UNL1        0.0686
      7 C           6.1455   -1.1463   -1.8822 C.3     1  UNL1        0.0031
      8 C           6.9671   -1.7808   -2.9966 C.ar    1  UNL1       -0.0442
      9 C           6.5054   -1.8331   -4.3186 C.ar    1  UNL1       -0.0550
     10 C           7.2811   -2.3906   -5.3374 C.ar    1  UNL1       -0.0199
     11 C           8.5436   -2.8822   -5.0420 C.ar    1  UNL1        0.1169
     12 O           9.3370   -3.4160   -6.0137 O.3     1  UNL1       -0.5068
     13 C           9.0341   -2.8289   -3.7451 C.ar    1  UNL1       -0.0199
     14 C           8.2511   -2.2757   -2.7239 C.ar    1  UNL1       -0.0550
     15 H           2.3239    1.8707   -0.0042 H       1  UNL1        0.2546
     16 H           2.2098    0.2653    0.4168 H       1  UNL1        0.2546
     17 H           3.9446   -1.1054   -0.0765 H       1  UNL1        0.2579
     18 H           4.2929   -0.8667   -3.0075 H       1  UNL1        0.0658
     19 H           4.3629   -2.3544   -2.0831 H       1  UNL1        0.0658
     20 H           6.4273   -1.6068   -0.9251 H       1  UNL1        0.0344
     21 H           6.4252   -0.0876   -1.8148 H       1  UNL1        0.0344
     22 H           5.5333   -1.4307   -4.5950 H       1  UNL1        0.0621
     23 H           6.8822   -2.4214   -6.3457 H       1  UNL1        0.0654
     24 H           8.8844   -3.3157   -6.8657 H       1  UNL1        0.2921
     25 H          10.0299   -3.2080   -3.5287 H       1  UNL1        0.0654
     26 H           8.6612   -2.2323   -1.7176 H       1  UNL1        0.0621
@<TRIPOS>BOND
     1     1     2    1
     2     2     3    2
     3     3     4    1
     4     3     5    1
     5     5     6    1
     6     6     7    1
     7     7     8    1
     8     8     9   ar
     9     9    10   ar
    10    10    11   ar
    11    11    12    1
    12    11    13   ar
    13    13    14   ar
    14     8    14   ar
    15     4    15    1
    16     4    16    1
    17     5    17    1
    18     6    18    1
    19     6    19    1
    20     7    20    1
    21     7    21    1
    22     9    22    1
    23    10    23    1
    24    12    24    1
    25    13    25    1
    26    14    26    1
