@<TRIPOS>MOLECULE
*****
 48 50 0 0 0
SMALL
GASTEIGER

@<TRIPOS>ATOM
      1 O           1.6409   -0.0350    0.5622 O.2     1  UNL1       -0.1530
      2 S           2.8928   -0.1537   -0.1342 S.O2    1  UNL1        0.0592
      3 O           3.1136    0.4785   -1.4161 O.2     1  UNL1       -0.1530
      4 N           4.0859    0.4869    0.9026 N.3     1  UNL1       -0.1868
      5 C           3.7146    0.7070    2.3357 C.3     1  UNL1        0.0311
      6 C           4.7820    1.5522    3.0482 C.3     1  UNL1       -0.0233
      7 C           6.0266    0.7566    3.4373 C.3     1  UNL1       -0.0026
      8 N           5.7056   -0.4651    4.1727 N.3     1  UNL1       -0.3159
      9 C           4.8035   -1.3169    3.4010 C.3     1  UNL1       -0.0026
     10 C           3.4926   -0.6050    3.0863 C.3     1  UNL1       -0.0233
     11 C           3.3850   -1.8634   -0.3548 C.ar    1  UNL1        0.1187
     12 C           4.7085   -2.0274   -0.8320 C.ar    1  UNL1       -0.0095
     13 C           5.1924   -3.2886   -1.1958 C.ar    1  UNL1        0.0954
     14 S           6.8274   -3.4515   -1.8850 S.O2    1  UNL1        0.0251
     15 O           7.6325   -2.3935   -1.3068 O.2     1  UNL1       -0.1643
     16 O           7.2213   -4.8414   -1.7317 O.2     1  UNL1       -0.1643
     17 C           6.6897   -3.1296   -3.6322 C.ar    1  UNL1        0.0936
     18 C           6.8409   -1.8229   -4.1103 C.ar    1  UNL1       -0.0365
     19 C           6.7837   -1.5767   -5.4792 C.ar    1  UNL1       -0.0599
     20 C           6.5913   -2.6339   -6.3714 C.ar    1  UNL1       -0.0616
     21 C           6.4564   -3.9401   -5.8955 C.ar    1  UNL1       -0.0599
     22 C           6.5091   -4.1938   -4.5231 C.ar    1  UNL1       -0.0365
     23 C           4.4096   -4.4195   -1.0094 C.ar    1  UNL1       -0.0358
     24 C           3.1106   -4.2645   -0.5257 C.ar    1  UNL1       -0.0464
     25 C           2.5487   -2.9898   -0.2246 C.ar    1  UNL1        0.0812
     26 C           1.0731   -3.0551    0.1169 C.3     1  UNL1        0.4192
     27 F           0.4153   -1.9204    0.4079 F       1  UNL1       -0.1658
     28 F           0.3714   -3.6111   -0.9167 F       1  UNL1       -0.1658
     29 F           0.8518   -3.8852    1.1791 F       1  UNL1       -0.1658
     30 H           4.4622    1.3218    0.4433 H       1  UNL1        0.1483
     31 H           2.7933    1.3035    2.3450 H       1  UNL1        0.0478
     32 H           4.3376    1.9615    3.9663 H       1  UNL1        0.0293
     33 H           5.0741    2.4135    2.4355 H       1  UNL1        0.0293
     34 H           6.6660    1.3819    4.0720 H       1  UNL1        0.0424
     35 H           6.6189    0.5122    2.5483 H       1  UNL1        0.0424
     36 H           5.2763   -0.2300    5.0678 H       1  UNL1        0.1219
     37 H           4.5902   -2.2200    3.9832 H       1  UNL1        0.0424
     38 H           5.2966   -1.6496    2.4800 H       1  UNL1        0.0424
     39 H           2.9776   -0.3804    4.0301 H       1  UNL1        0.0293
     40 H           2.8342   -1.2837    2.5372 H       1  UNL1        0.0293
     41 H           5.3513   -1.1556   -0.9582 H       1  UNL1        0.0656
     42 H           7.0150   -0.9951   -3.4229 H       1  UNL1        0.0637
     43 H           6.9047   -0.5642   -5.8578 H       1  UNL1        0.0618
     44 H           6.5592   -2.4394   -7.4414 H       1  UNL1        0.0618
     45 H           6.3236   -4.7598   -6.5983 H       1  UNL1        0.0618
     46 H           6.4254   -5.2175   -4.1645 H       1  UNL1        0.0637
     47 H           4.7797   -5.4132   -1.2552 H       1  UNL1        0.0637
     48 H           2.4939   -5.1620   -0.4194 H       1  UNL1        0.0624
@<TRIPOS>BOND
     1     1     2    2
     2     2     3    2
     3     2     4    1
     4     4     5    1
     5     5     6    1
     6     6     7    1
     7     7     8    1
     8     8     9    1
     9     9    10    1
    10     5    10    1
    11     2    11    1
    12    11    12   ar
    13    12    13   ar
    14    13    14    1
    15    14    15    2
    16    14    16    2
    17    14    17    1
    18    17    18   ar
    19    18    19   ar
    20    19    20   ar
    21    20    21   ar
    22    21    22   ar
    23    17    22   ar
    24    13    23   ar
    25    23    24   ar
    26    24    25   ar
    27    11    25   ar
    28    25    26    1
    29    26    27    1
    30    26    28    1
    31    26    29    1
    32     4    30    1
    33     5    31    1
    34     6    32    1
    35     6    33    1
    36     7    34    1
    37     7    35    1
    38     8    36    1
    39     9    37    1
    40     9    38    1
    41    10    39    1
    42    10    40    1
    43    12    41    1
    44    18    42    1
    45    19    43    1
    46    20    44    1
    47    21    45    1
    48    22    46    1
    49    23    47    1
    50    24    48    1
