16727102
  -OEChem-06052610043D

 48 50  0     0  0  0  0  0  0999 V2000
   -2.0379   -0.7271   -1.7242 S   0  0  0  0  0  0  0  0  0  0  0  0
    3.2550   -1.3195   -0.6142 S   0  0  0  0  0  0  0  0  0  0  0  0
   -2.6167   -2.5446    2.3076 F   0  0  0  0  0  0  0  0  0  0  0  0
   -3.1954   -0.8144    1.1348 F   0  0  0  0  0  0  0  0  0  0  0  0
   -3.2068   -2.7915    0.2292 F   0  0  0  0  0  0  0  0  0  0  0  0
   -1.3994   -0.2061   -2.9178 O   0  0  0  0  0  0  0  0  0  0  0  0
   -2.9906   -1.8163   -1.8226 O   0  0  0  0  0  0  0  0  0  0  0  0
    3.3320   -1.2740   -2.0686 O   0  0  0  0  0  0  0  0  0  0  0  0
    4.0076   -2.3283    0.1185 O   0  0  0  0  0  0  0  0  0  0  0  0
   -2.7552    0.5467   -0.8635 N   0  0  0  0  0  0  0  0  0  0  0  0
   -3.6241    3.6343    0.9809 N   0  0  0  0  0  0  0  0  0  0  0  0
   -1.9391    1.7272   -0.4778 C   0  0  0  0  0  0  0  0  0  0  0  0
   -1.9044    1.8564    1.0452 C   0  0  0  0  0  0  0  0  0  0  0  0
   -2.5064    2.9889   -1.1291 C   0  0  0  0  0  0  0  0  0  0  0  0
   -3.2202    2.3829    1.6212 C   0  0  0  0  0  0  0  0  0  0  0  0
   -3.7979    3.4635   -0.4611 C   0  0  0  0  0  0  0  0  0  0  0  0
   -0.7683   -1.2519   -0.6118 C   0  0  0  0  0  0  0  0  0  0  0  0
   -1.0793   -1.8078    0.6292 C   0  0  0  0  0  0  0  0  0  0  0  0
    0.5646   -1.1013   -0.9942 C   0  0  0  0  0  0  0  0  0  0  0  0
    1.5865   -1.5068   -0.1358 C   0  0  0  0  0  0  0  0  0  0  0  0
   -0.0574   -2.2133    1.4876 C   0  0  0  0  0  0  0  0  0  0  0  0
    1.2755   -2.0628    1.1051 C   0  0  0  0  0  0  0  0  0  0  0  0
   -2.4961   -1.9847    1.0685 C   0  0  0  0  0  0  0  0  0  0  0  0
    3.8192    0.2724   -0.0753 C   0  0  0  0  0  0  0  0  0  0  0  0
    4.3961    0.4177    1.1863 C   0  0  0  0  0  0  0  0  0  0  0  0
    3.6853    1.3798   -0.9128 C   0  0  0  0  0  0  0  0  0  0  0  0
    4.8393    1.6704    1.6103 C   0  0  0  0  0  0  0  0  0  0  0  0
    4.1286    2.6325   -0.4886 C   0  0  0  0  0  0  0  0  0  0  0  0
    4.7057    2.7779    0.7729 C   0  0  0  0  0  0  0  0  0  0  0  0
   -0.9148    1.5929   -0.8435 H   0  0  0  0  0  0  0  0  0  0  0  0
   -1.1074    2.5648    1.3103 H   0  0  0  0  0  0  0  0  0  0  0  0
   -1.6381    0.9121    1.5272 H   0  0  0  0  0  0  0  0  0  0  0  0
   -2.6876    2.8212   -2.1976 H   0  0  0  0  0  0  0  0  0  0  0  0
   -1.7589    3.7899   -1.0563 H   0  0  0  0  0  0  0  0  0  0  0  0
   -3.0895    2.5642    2.6938 H   0  0  0  0  0  0  0  0  0  0  0  0
   -4.0154    1.6350    1.5231 H   0  0  0  0  0  0  0  0  0  0  0  0
   -4.6154    2.7608   -0.6628 H   0  0  0  0  0  0  0  0  0  0  0  0
   -4.0917    4.4246   -0.8973 H   0  0  0  0  0  0  0  0  0  0  0  0
   -3.6689    0.4265   -0.4118 H   0  0  0  0  0  0  0  0  0  0  0  0
   -4.5023    3.9526    1.3898 H   0  0  0  0  0  0  0  0  0  0  0  0
    0.8169   -0.6625   -1.9547 H   0  0  0  0  0  0  0  0  0  0  0  0
   -0.2760   -2.6470    2.4595 H   0  0  0  0  0  0  0  0  0  0  0  0
    2.0539   -2.3783    1.7941 H   0  0  0  0  0  0  0  0  0  0  0  0
    4.5035   -0.4303    1.8564 H   0  0  0  0  0  0  0  0  0  0  0  0
    3.2308    1.2927   -1.8955 H   0  0  0  0  0  0  0  0  0  0  0  0
    5.2870    1.7841    2.5933 H   0  0  0  0  0  0  0  0  0  0  0  0
    4.0223    3.4953   -1.1395 H   0  0  0  0  0  0  0  0  0  0  0  0
    5.0497    3.7535    1.1035 H   0  0  0  0  0  0  0  0  0  0  0  0
  1  6  2  0  0  0  0
  1  7  2  0  0  0  0
  1 10  1  0  0  0  0
  1 17  1  0  0  0  0
  2  8  2  0  0  0  0
  2  9  2  0  0  0  0
  2 20  1  0  0  0  0
  2 24  1  0  0  0  0
  3 23  1  0  0  0  0
  4 23  1  0  0  0  0
  5 23  1  0  0  0  0
 10 12  1  0  0  0  0
 10 39  1  0  0  0  0
 11 15  1  0  0  0  0
 11 16  1  0  0  0  0
 11 40  1  0  0  0  0
 12 13  1  0  0  0  0
 12 14  1  0  0  0  0
 12 30  1  0  0  0  0
 13 15  1  0  0  0  0
 13 31  1  0  0  0  0
 13 32  1  0  0  0  0
 14 16  1  0  0  0  0
 14 33  1  0  0  0  0
 14 34  1  0  0  0  0
 15 35  1  0  0  0  0
 15 36  1  0  0  0  0
 16 37  1  0  0  0  0
 16 38  1  0  0  0  0
 17 18  2  0  0  0  0
 17 19  1  0  0  0  0
 18 21  1  0  0  0  0
 18 23  1  0  0  0  0
 19 20  2  0  0  0  0
 19 41  1  0  0  0  0
 20 22  1  0  0  0  0
 21 22  2  0  0  0  0
 21 42  1  0  0  0  0
 22 43  1  0  0  0  0
 24 25  2  0  0  0  0
 24 26  1  0  0  0  0
 25 27  1  0  0  0  0
 25 44  1  0  0  0  0
 26 28  2  0  0  0  0
 26 45  1  0  0  0  0
 27 29  2  0  0  0  0
 27 46  1  0  0  0  0
 28 29  1  0  0  0  0
 28 47  1  0  0  0  0
 29 48  1  0  0  0  0
M  END
> <PUBCHEM_COMPOUND_CID>
16727102

> <PUBCHEM_CONFORMER_RMSD>
0.8

> <PUBCHEM_CONFORMER_DIVERSEORDER>
3
2
10
13
6
11
8
1
9
4
12
7
5

> <PUBCHEM_MMFF94_PARTIAL_CHARGES>
37
1 1.45
10 -0.91
11 -0.9
12 0.36
15 0.27
16 0.27
17 -0.01
18 -0.14
19 -0.15
2 1.32
20 -0.01
21 -0.15
22 -0.15
23 1.16
24 -0.01
25 -0.15
26 -0.15
27 -0.15
28 -0.15
29 -0.15
3 -0.34
39 0.42
4 -0.34
40 0.36
41 0.15
42 0.15
43 0.15
44 0.15
45 0.15
46 0.15
47 0.15
48 0.15
5 -0.34
6 -0.65
7 -0.65
8 -0.65
9 -0.65

> <PUBCHEM_EFFECTIVE_ROTOR_COUNT>
7.2

> <PUBCHEM_PHARMACOPHORE_FEATURES>
10
1 10 donor
1 11 cation
1 11 donor
1 6 acceptor
1 7 acceptor
1 8 acceptor
1 9 acceptor
6 11 12 13 14 15 16 rings
6 17 18 19 20 21 22 rings
6 24 25 26 27 28 29 rings

> <PUBCHEM_HEAVY_ATOM_COUNT>
29

> <PUBCHEM_ATOM_DEF_STEREO_COUNT>
0

> <PUBCHEM_ATOM_UDEF_STEREO_COUNT>
0

> <PUBCHEM_BOND_DEF_STEREO_COUNT>
0

> <PUBCHEM_BOND_UDEF_STEREO_COUNT>
0

> <PUBCHEM_ISOTOPIC_ATOM_COUNT>
0

> <PUBCHEM_COMPONENT_COUNT>
1

> <PUBCHEM_CACTVS_TAUTO_COUNT>
1

> <PUBCHEM_CONFORMER_ID>
00FF3C3E00000003

> <PUBCHEM_MMFF94_ENERGY>
33.1485

> <PUBCHEM_FEATURE_SELFOVERLAP>
50.782

> <PUBCHEM_SHAPE_FINGERPRINT>
10670039 82 18193007117738464132
11221954 11 18413389830678745244
11578080 2 16915914349916743810
12160290 23 17386862775211128066
12173636 292 18410578383283033887
12422481 6 18122378806948184929
12633257 1 17968925423815542568
12788726 201 18046075014603996184
13140716 1 18338518539166967984
13224815 77 18410855507905747006
13583140 156 18045791091342621491
13911987 19 17903632222426488886
14081887 123 18261396705734543530
14142880 1 18261100881546222077
14251764 38 18411694392370453584
14468879 13 18202281398663470892
14955137 171 17251455388277321675
15295992 7 18265057933758381050
20600515 1 17388264704070569423
21033648 29 17752482062493102588
21049683 118 17969771991581103705
21458453 9 17826832237496996257
21864079 5 18342736308641544948
22182937 141 18410577249400735065
22749437 52 18336256921105848068
23227448 37 18410578340470121253
23352939 185 17416672747637799975
23558518 356 18334860528020783726
469060 322 18191600854428215505
474 4 18196084443723682544
4742675 86 18267849761316943796
5081480 168 17129335029067798780
508706 21 18335143085587975632
5252454 2 17969799479207968428
57527585 21 18269551809363652780
6004065 56 17831303066561190995
7399639 24 18199476626417265862
9981440 41 18268409348231656434

> <PUBCHEM_SHAPE_MULTIPOLES>
549.24
9.53
4.48
2.04
8.07
2.47
-0.4
6.76
1.41
-2.82
1.11
-0.91
-0.52
0.7

> <PUBCHEM_SHAPE_SELFOVERLAP>
1151.81

> <PUBCHEM_SHAPE_VOLUME>
311.1

> <PUBCHEM_COORDINATE_TYPE>
2
5
10

$$$$
