@<TRIPOS>MOLECULE
*****
 25 26 0 0 0
SMALL
GASTEIGER

@<TRIPOS>ATOM
      1 N           2.8181    2.3711    0.1524 N.pl3   1  UNL1       -0.2889
      2 C           2.4538    1.0992    0.4294 C.cat   1  UNL1        0.3811
      3 N           1.3353    0.6060    0.0260 N.pl3   1  UNL1       -0.1295
      4 N           3.2902    0.3852    1.2243 N.pl3   1  UNL1       -0.2438
      5 C           4.7026    0.3795    1.1951 C.ar    1  UNL1        0.1005
      6 C           5.4403    0.8715    0.1142 C.ar    1  UNL1       -0.0226
      7 C           6.8359    0.9051    0.1502 C.ar    1  UNL1       -0.0508
      8 C           7.5316    0.4431    1.2718 C.ar    1  UNL1       -0.0177
      9 C           8.9331    0.4870    1.3250 C.ar    1  UNL1       -0.0540
     10 C           9.6163    0.0237    2.4489 C.ar    1  UNL1       -0.0612
     11 C           8.9066   -0.4877    3.5315 C.ar    1  UNL1       -0.0612
     12 C           7.5112   -0.5359    3.4931 C.ar    1  UNL1       -0.0539
     13 C           6.8066   -0.0748    2.3691 C.ar    1  UNL1       -0.0146
     14 C           5.4004   -0.1043    2.3118 C.ar    1  UNL1       -0.0155
     15 H           2.0677    3.0040   -0.0882 H       1  UNL1        0.2547
     16 H           3.4407    2.7627    0.8515 H       1  UNL1        0.2547
     17 H           0.8648    1.2945   -0.5651 H       1  UNL1        0.3062
     18 H           2.9114   -0.5288    1.4478 H       1  UNL1        0.2648
     19 H           4.9370    1.2217   -0.7838 H       1  UNL1        0.0652
     20 H           7.3711    1.2988   -0.7115 H       1  UNL1        0.0625
     21 H           9.5027    0.8861    0.4888 H       1  UNL1        0.0624
     22 H          10.7020    0.0641    2.4779 H       1  UNL1        0.0618
     23 H           9.4380   -0.8472    4.4084 H       1  UNL1        0.0618
     24 H           6.9759   -0.9356    4.3516 H       1  UNL1        0.0624
     25 H           4.8384   -0.4849    3.1623 H       1  UNL1        0.0658
@<TRIPOS>BOND
     1     1     2    1
     2     2     3    2
     3     2     4    1
     4     4     5    1
     5     5     6   ar
     6     6     7   ar
     7     7     8   ar
     8     8     9   ar
     9     9    10   ar
    10    10    11   ar
    11    11    12   ar
    12    12    13   ar
    13     8    13   ar
    14    13    14   ar
    15     5    14   ar
    16     1    15    1
    17     1    16    1
    18     3    17    1
    19     4    18    1
    20     6    19    1
    21     7    20    1
    22     9    21    1
    23    10    22    1
    24    11    23    1
    25    12    24    1
    26    14    25    1
