@<TRIPOS>MOLECULE
*****
 22 22 0 0 0
SMALL
GASTEIGER

@<TRIPOS>ATOM
      1 N           1.2025    1.7536   -0.6317 N.pl3   1  UNL1       -0.2889
      2 C           2.5041    1.8275   -0.2620 C.cat   1  UNL1        0.3810
      3 N           2.9274    2.7622    0.5109 N.pl3   1  UNL1       -0.1295
      4 N           3.2443    0.8227   -0.8063 N.pl3   1  UNL1       -0.2438
      5 C           4.6474    0.7942   -0.9015 C.ar    1  UNL1        0.1000
      6 C           5.3366   -0.4256   -0.8402 C.ar    1  UNL1       -0.0224
      7 C           6.7351   -0.4700   -0.9433 C.ar    1  UNL1       -0.0445
      8 C           7.4631    0.7165   -1.1053 C.ar    1  UNL1        0.0590
      9 C           8.9421    0.7358   -1.2445 C.2     1  UNL1        0.3368
     10 O           9.5330    1.5472   -1.9342 O.2     1  UNL1       -0.2451
     11 O           9.5666   -0.2085   -0.5083 O.3     1  UNL1       -0.4771
     12 C           6.7858    1.9329   -1.1847 C.ar    1  UNL1       -0.0445
     13 C           5.3945    1.9674   -1.0726 C.ar    1  UNL1       -0.0224
     14 H           0.6867    2.6117   -0.4774 H       1  UNL1        0.2547
     15 H           1.0905    1.4525   -1.5933 H       1  UNL1        0.2547
     16 H           2.1562    3.3588    0.8064 H       1  UNL1        0.3062
     17 H           2.7876   -0.0774   -0.8355 H       1  UNL1        0.2648
     18 H           4.7903   -1.3567   -0.7073 H       1  UNL1        0.0652
     19 H           7.2307   -1.4364   -0.9229 H       1  UNL1        0.0627
     20 H           9.0000   -0.6538    0.1471 H       1  UNL1        0.2954
     21 H           7.3327    2.8615   -1.3348 H       1  UNL1        0.0627
     22 H           4.8909    2.9289   -1.1399 H       1  UNL1        0.0652
@<TRIPOS>BOND
     1     1     2    1
     2     2     3    2
     3     2     4    1
     4     4     5    1
     5     5     6   ar
     6     6     7   ar
     7     7     8   ar
     8     8     9    1
     9     9    10    2
    10     9    11    1
    11     8    12   ar
    12    12    13   ar
    13     5    13   ar
    14     1    14    1
    15     1    15    1
    16     3    16    1
    17     4    17    1
    18     6    18    1
    19     7    19    1
    20    11    20    1
    21    12    21    1
    22    13    22    1
