@<TRIPOS>MOLECULE
*****
 51 54 0 0 0
SMALL
GASTEIGER

@<TRIPOS>ATOM
      1 C           3.2838   -0.6823   -1.5122 C.3     1  UNL1       -0.0569
      2 C           2.5754   -0.2996   -0.1674 C.3     1  UNL1       -0.0030
      3 C           1.6764   -1.4945    0.1488 C.3     1  UNL1       -0.0447
      4 C           0.4864   -1.0839    0.9701 C.3     1  UNL1       -0.0489
      5 C          -0.2969    0.1051    0.3455 C.3     1  UNL1       -0.0322
      6 C           0.4324    0.8276   -0.8709 C.3     1  UNL1       -0.0343
      7 C          -0.3437    2.0749   -1.3125 C.3     1  UNL1       -0.0494
      8 C          -1.8907    1.9648   -1.2595 C.3     1  UNL1       -0.0491
      9 C          -2.5257    1.0431   -0.1981 C.3     1  UNL1       -0.0287
     10 C          -3.9955    0.7217   -0.5244 C.3     1  UNL1        0.0092
     11 C          -4.6116   -0.1859    0.5275 C.2     1  UNL1        0.1337
     12 O          -5.7696   -0.5911    0.4307 O.2     1  UNL1       -0.2974
     13 C          -3.7799   -0.5025    1.7407 C.3     1  UNL1        0.0063
     14 C          -2.3772   -0.9530    1.3544 C.3     1  UNL1       -0.0404
     15 C          -1.7649   -0.2711    0.0745 C.3     1  UNL1       -0.0254
     16 C          -1.8414   -1.2553   -1.1207 C.3     1  UNL1       -0.0590
     17 C           1.8501    1.0752   -0.3212 C.3     1  UNL1       -0.0301
     18 C           3.0759    1.9830   -0.5724 C.3     1  UNL1       -0.0470
     19 C           3.9935    1.5252    0.6186 C.3     1  UNL1       -0.0261
     20 C           3.4512    0.1641    1.0580 C.3     1  UNL1        0.0609
     21 O           4.3839   -0.7635    1.5257 O.3     1  UNL1       -0.3912
     22 H           4.3263   -0.9635   -1.3739 H       1  UNL1        0.0236
     23 H           2.7820   -1.5160   -2.0248 H       1  UNL1        0.0236
     24 H           3.2199    0.0977   -2.2813 H       1  UNL1        0.0236
     25 H           2.2360   -2.2650    0.6648 H       1  UNL1        0.0271
     26 H           1.2758   -1.9500   -0.7655 H       1  UNL1        0.0271
     27 H           0.8037   -0.8136    1.9828 H       1  UNL1        0.0268
     28 H          -0.1312   -1.9781    1.0866 H       1  UNL1        0.0268
     29 H          -0.3388    0.8564    1.1535 H       1  UNL1        0.0309
     30 H           0.4793    0.1508   -1.7330 H       1  UNL1        0.0306
     31 H          -0.0666    2.3103   -2.3437 H       1  UNL1        0.0268
     32 H          -0.0302    2.9416   -0.7204 H       1  UNL1        0.0268
     33 H          -2.2749    2.9803   -1.0746 H       1  UNL1        0.0268
     34 H          -2.2627    1.6996   -2.2549 H       1  UNL1        0.0268
     35 H          -2.5186    1.6241    0.7350 H       1  UNL1        0.0310
     36 H          -4.5827    1.6351   -0.5689 H       1  UNL1        0.0344
     37 H          -4.0773    0.1994   -1.4872 H       1  UNL1        0.0344
     38 H          -3.7395    0.4008    2.3605 H       1  UNL1        0.0342
     39 H          -4.2671   -1.2815    2.3375 H       1  UNL1        0.0342
     40 H          -1.7494   -0.7596    2.2357 H       1  UNL1        0.0275
     41 H          -2.3769   -2.0446    1.2325 H       1  UNL1        0.0275
     42 H          -1.8721   -0.7320   -2.0813 H       1  UNL1        0.0235
     43 H          -2.7279   -1.8948   -1.0622 H       1  UNL1        0.0235
     44 H          -0.9791   -1.9287   -1.1575 H       1  UNL1        0.0235
     45 H           1.5681    1.5035    0.6571 H       1  UNL1        0.0310
     46 H           3.6331    1.8040   -1.4977 H       1  UNL1        0.0269
     47 H           2.8847    3.0564   -0.5345 H       1  UNL1        0.0269
     48 H           5.0581    1.4729    0.3757 H       1  UNL1        0.0290
     49 H           3.8784    2.2187    1.4567 H       1  UNL1        0.0290
     50 H           2.7503    0.3243    1.8896 H       1  UNL1        0.0599
     51 H           4.3401   -0.7482    2.5063 H       1  UNL1        0.2098
@<TRIPOS>BOND
     1     2     3    1
     2     3     4    1
     3     4     5    1
     4     5     6    1
     5     6     7    1
     6     7     8    1
     7     8     9    1
     8     9    10    1
     9    10    11    1
    10    11    13    1
    11    13    14    1
    12    14    15    1
    13     5    15    1
    14     9    15    1
    15     6    17    1
    16     2    17    1
    17    17    18    1
    18    18    19    1
    19    19    20    1
    20     2    20    1
    21     1     2    1
    22    11    12    2
    23    15    16    1
    24    20    21    1
    25     1    22    1
    26     1    23    1
    27     1    24    1
    28     3    25    1
    29     3    26    1
    30     4    27    1
    31     4    28    1
    32     5    29    1
    33     6    30    1
    34     7    31    1
    35     7    32    1
    36     8    33    1
    37     8    34    1
    38     9    35    1
    39    10    36    1
    40    10    37    1
    41    13    38    1
    42    13    39    1
    43    14    40    1
    44    14    41    1
    45    16    42    1
    46    16    43    1
    47    16    44    1
    48    17    45    1
    49    18    46    1
    50    18    47    1
    51    19    48    1
    52    19    49    1
    53    20    50    1
    54    21    51    1
