@<TRIPOS>MOLECULE
*****
 63 66 0 0 0
SMALL
GASTEIGER

@<TRIPOS>ATOM
      1 C           6.2984    2.8797   -2.1406 C.3     1  UNL1       -0.0442
      2 C           5.3627    3.5684   -1.1559 C.3     1  UNL1        0.0262
      3 C           5.7487    3.1903    0.2988 C.3     1  UNL1       -0.0442
      4 C           5.4914    5.0940   -1.2878 C.3     1  UNL1       -0.0442
      5 N           3.9725    3.2336   -1.4377 N.am    1  UNL1       -0.3103
      6 C           3.4558    1.9686   -1.3700 C.2     1  UNL1        0.2170
      7 O           4.1118    0.9925   -1.0167 O.2     1  UNL1       -0.2755
      8 C           1.9956    1.7970   -1.7176 C.3     1  UNL1        0.0412
      9 C           1.4953    2.2537   -3.0956 C.3     1  UNL1       -0.0411
     10 C          -0.0393    2.3071   -2.9227 C.3     1  UNL1       -0.0487
     11 C          -0.2681    1.8475   -1.4689 C.3     1  UNL1       -0.0318
     12 C          -1.5967    2.1316   -0.7776 C.3     1  UNL1       -0.0340
     13 C          -2.6949    1.6078   -1.6956 C.3     1  UNL1       -0.0480
     14 C          -3.9637    1.2069   -1.0091 C.3     1  UNL1       -0.0334
     15 C          -4.1643    1.6688    0.4224 C.3     1  UNL1        0.0325
     16 N          -5.2352    2.5862    0.6863 N.am    1  UNL1       -0.3082
     17 C          -5.6720    2.6574    2.0017 C.2     1  UNL1        0.2369
     18 O          -6.5654    3.4037    2.3647 O.2     1  UNL1       -0.2708
     19 C          -4.9000    1.7644    2.9606 C.2     1  UNL1       -0.0032
     20 C          -3.6137    1.3928    2.6838 C.2     1  UNL1       -0.0712
     21 C          -2.9703    1.9742    1.3970 C.3     1  UNL1        0.0078
     22 C          -2.7280    3.4387    1.9069 C.3     1  UNL1       -0.0541
     23 C          -1.6193    1.5239    0.6882 C.3     1  UNL1       -0.0274
     24 C          -0.3130    1.9573    1.4410 C.3     1  UNL1       -0.0486
     25 C           1.0082    1.7776    0.6712 C.3     1  UNL1       -0.0464
     26 C           0.9600    2.3858   -0.7345 C.3     1  UNL1       -0.0179
     27 C           0.9675    3.9409   -0.6630 C.3     1  UNL1       -0.0586
     28 H           7.3473    3.1037   -1.9167 H       1  UNL1        0.0250
     29 H           6.0903    3.2059   -3.1647 H       1  UNL1        0.0250
     30 H           6.1907    1.7891   -2.1237 H       1  UNL1        0.0250
     31 H           6.7817    3.4859    0.5127 H       1  UNL1        0.0250
     32 H           5.0963    3.6797    1.0290 H       1  UNL1        0.0250
     33 H           5.6848    2.1103    0.4787 H       1  UNL1        0.0250
     34 H           6.5161    5.4292   -1.1001 H       1  UNL1        0.0250
     35 H           4.8274    5.6138   -0.5833 H       1  UNL1        0.0250
     36 H           5.2039    5.4138   -2.2947 H       1  UNL1        0.0250
     37 H           3.3541    3.9737   -1.7689 H       1  UNL1        0.1492
     38 H           1.8863    0.6969   -1.7144 H       1  UNL1        0.0400
     39 H           1.8949    3.2305   -3.3903 H       1  UNL1        0.0273
     40 H           1.7837    1.5410   -3.8755 H       1  UNL1        0.0273
     41 H          -0.4137    3.3230   -3.0963 H       1  UNL1        0.0268
     42 H          -0.5359    1.6467   -3.6412 H       1  UNL1        0.0268
     43 H          -0.2000    0.7461   -1.4896 H       1  UNL1        0.0309
     44 H          -1.7431    3.2141   -0.7078 H       1  UNL1        0.0307
     45 H          -2.9143    2.3568   -2.4652 H       1  UNL1        0.0269
     46 H          -2.3397    0.7251   -2.2493 H       1  UNL1        0.0269
     47 H          -4.8332    1.4258   -1.6378 H       1  UNL1        0.0283
     48 H          -3.9275    0.1034   -0.9761 H       1  UNL1        0.0283
     49 H          -4.6197    0.7246    0.7775 H       1  UNL1        0.0507
     50 H          -5.5871    3.2482    0.0038 H       1  UNL1        0.1493
     51 H          -5.4432    1.4845    3.8533 H       1  UNL1        0.0666
     52 H          -3.0638    0.7317    3.3441 H       1  UNL1        0.0580
     53 H          -2.0218    3.4074    2.7548 H       1  UNL1        0.0239
     54 H          -3.5951    3.9466    2.3373 H       1  UNL1        0.0239
     55 H          -2.3207    4.1023    1.1465 H       1  UNL1        0.0239
     56 H          -1.6040    0.4273    0.6151 H       1  UNL1        0.0312
     57 H          -0.3426    3.0236    1.6832 H       1  UNL1        0.0268
     58 H          -0.2471    1.4277    2.3982 H       1  UNL1        0.0268
     59 H           1.8168    2.2553    1.2424 H       1  UNL1        0.0271
     60 H           1.2534    0.7123    0.6235 H       1  UNL1        0.0271
     61 H           0.0558    4.3419   -0.2060 H       1  UNL1        0.0235
     62 H           1.8077    4.3109   -0.0671 H       1  UNL1        0.0235
     63 H           1.0455    4.4206   -1.6453 H       1  UNL1        0.0235
@<TRIPOS>BOND
     1     1     2    1
     2     2     3    1
     3     2     4    1
     4     2     5    1
     5     5     6   am
     6     6     7    2
     7     8     9    1
     8     9    10    1
     9    10    11    1
    10    11    12    1
    11    12    13    1
    12    13    14    1
    13    14    15    1
    14    15    16    1
    15    16    17   am
    16    17    18    2
    17    17    19    1
    18    19    20    2
    19    20    21    1
    20    15    21    1
    21    21    22    1
    22    21    23    1
    23    12    23    1
    24    23    24    1
    25    24    25    1
    26    25    26    1
    27    11    26    1
    28     8    26    1
    29    26    27    1
    30     8     6    1
    31     1    28    1
    32     1    29    1
    33     1    30    1
    34     3    31    1
    35     3    32    1
    36     3    33    1
    37     4    34    1
    38     4    35    1
    39     4    36    1
    40     5    37    1
    41     8    38    1
    42     9    39    1
    43     9    40    1
    44    10    41    1
    45    10    42    1
    46    11    43    1
    47    12    44    1
    48    13    45    1
    49    13    46    1
    50    14    47    1
    51    14    48    1
    52    15    49    1
    53    16    50    1
    54    19    51    1
    55    20    52    1
    56    22    53    1
    57    22    54    1
    58    22    55    1
    59    23    56    1
    60    24    57    1
    61    24    58    1
    62    25    59    1
    63    25    60    1
    64    27    61    1
    65    27    62    1
    66    27    63    1
