@<TRIPOS>MOLECULE
*****
 49 52 0 0 0
SMALL
GASTEIGER

@<TRIPOS>ATOM
      1 C           2.0533    0.6563    2.1565 C.3     1  UNL1       -0.0569
      2 C           2.3388    0.9006    0.6478 C.3     1  UNL1       -0.0030
      3 C           1.7776    2.2916    0.2965 C.3     1  UNL1       -0.0447
      4 C           0.4697    2.3373   -0.5247 C.3     1  UNL1       -0.0486
      5 C          -0.3933    1.0637   -0.7046 C.3     1  UNL1       -0.0288
      6 C           0.2801   -0.2667   -0.2778 C.3     1  UNL1       -0.0337
      7 C          -0.2574   -1.3742   -1.1880 C.3     1  UNL1       -0.0459
      8 C          -1.7659   -1.2615   -1.4040 C.3     1  UNL1       -0.0305
      9 C          -2.4928   -0.3172   -0.4828 C.2     1  UNL1       -0.0601
     10 C          -3.7568   -0.6130   -0.1026 C.2     1  UNL1       -0.0194
     11 C          -4.5810    0.5617    0.2532 C.2     1  UNL1        0.1561
     12 O          -5.5241    0.4496    1.0257 O.2     1  UNL1       -0.2927
     13 C          -4.2882    1.8199   -0.5421 C.3     1  UNL1        0.0107
     14 C          -2.7867    2.1444   -0.6971 C.3     1  UNL1       -0.0367
     15 C          -1.8552    1.0490   -0.1232 C.3     1  UNL1       -0.0072
     16 C          -1.7905    1.2410    1.4238 C.3     1  UNL1       -0.0556
     17 C           1.7827   -0.1685   -0.3105 C.3     1  UNL1       -0.0301
     18 C           2.5606   -1.4199    0.0803 C.3     1  UNL1       -0.0470
     19 C           3.9868   -0.8900    0.2884 C.3     1  UNL1       -0.0261
     20 C           3.8575    0.6497    0.4330 C.3     1  UNL1        0.0609
     21 O           4.3413    1.2797   -0.7514 O.3     1  UNL1       -0.3912
     22 H           0.9845    0.6507    2.3796 H       1  UNL1        0.0236
     23 H           2.5064    1.4546    2.7578 H       1  UNL1        0.0236
     24 H           2.4774   -0.2791    2.5336 H       1  UNL1        0.0236
     25 H           2.5328    2.8882   -0.2305 H       1  UNL1        0.0271
     26 H           1.5944    2.8616    1.2178 H       1  UNL1        0.0271
     27 H           0.7882    2.6274   -1.5390 H       1  UNL1        0.0268
     28 H          -0.1412    3.1838   -0.1926 H       1  UNL1        0.0268
     29 H          -0.5225    1.0242   -1.7996 H       1  UNL1        0.0312
     30 H          -0.0104   -0.5304    0.7453 H       1  UNL1        0.0307
     31 H          -0.0100   -2.3604   -0.7777 H       1  UNL1        0.0271
     32 H           0.2333   -1.3209   -2.1699 H       1  UNL1        0.0271
     33 H          -2.2086   -2.2658   -1.3950 H       1  UNL1        0.0310
     34 H          -1.9298   -0.8820   -2.4232 H       1  UNL1        0.0310
     35 H          -4.2656   -1.5489   -0.2807 H       1  UNL1        0.0652
     36 H          -4.8274    2.6633   -0.1033 H       1  UNL1        0.0345
     37 H          -4.7212    1.6511   -1.5444 H       1  UNL1        0.0345
     38 H          -2.5736    2.3125   -1.7606 H       1  UNL1        0.0278
     39 H          -2.5908    3.1063   -0.2046 H       1  UNL1        0.0278
     40 H          -1.7546    0.2861    1.9599 H       1  UNL1        0.0238
     41 H          -2.6529    1.7941    1.8135 H       1  UNL1        0.0238
     42 H          -0.9105    1.8186    1.7232 H       1  UNL1        0.0238
     43 H           2.0635    0.0814   -1.3451 H       1  UNL1        0.0310
     44 H           2.1724   -1.8564    1.0086 H       1  UNL1        0.0269
     45 H           2.5185   -2.2044   -0.6810 H       1  UNL1        0.0269
     46 H           4.4156   -1.3413    1.1897 H       1  UNL1        0.0290
     47 H           4.6167   -1.1683   -0.5636 H       1  UNL1        0.0290
     48 H           4.4696    1.0179    1.2629 H       1  UNL1        0.0599
     49 H           3.9900    0.8106   -1.5267 H       1  UNL1        0.2098
@<TRIPOS>BOND
     1     1     2    1
     2     2     3    1
     3     3     4    1
     4     4     5    1
     5     5     6    1
     6     6     7    1
     7     7     8    1
     8     8     9    1
     9     9    10    2
    10    10    11    1
    11    11    12    2
    12    11    13    1
    13    13    14    1
    14    14    15    1
    15     9    15    1
    16     5    15    1
    17    15    16    1
    18     6    17    1
    19     2    17    1
    20    17    18    1
    21    18    19    1
    22    19    20    1
    23     2    20    1
    24    20    21    1
    25     1    22    1
    26     1    23    1
    27     1    24    1
    28     3    25    1
    29     3    26    1
    30     4    27    1
    31     4    28    1
    32     5    29    1
    33     6    30    1
    34     7    31    1
    35     7    32    1
    36     8    33    1
    37     8    34    1
    38    10    35    1
    39    13    36    1
    40    13    37    1
    41    14    38    1
    42    14    39    1
    43    16    40    1
    44    16    41    1
    45    16    42    1
    46    17    43    1
    47    18    44    1
    48    18    45    1
    49    19    46    1
    50    19    47    1
    51    20    48    1
    52    21    49    1
