@<TRIPOS>MOLECULE
*****
 26 26 0 0 0
SMALL
GASTEIGER

@<TRIPOS>ATOM
      1 N           1.1133   -0.0049    0.1595 N.pl3   1  UNL1       -0.2893
      2 C           2.4458    0.1458    0.0628 C.cat   1  UNL1        0.3762
      3 N           3.0323    0.5627   -0.9986 N.pl3   1  UNL1       -0.1298
      4 N           3.0843   -0.1933    1.2115 N.pl3   1  UNL1       -0.2758
      5 C           4.5412   -0.2755    1.1862 C.3     1  UNL1        0.0686
      6 C           5.1354   -0.7564    2.5123 C.3     1  UNL1        0.0031
      7 C           6.6536   -0.8160    2.5410 C.ar    1  UNL1       -0.0442
      8 C           7.4527   -0.4377    1.4488 C.ar    1  UNL1       -0.0550
      9 C           8.8449   -0.4964    1.5136 C.ar    1  UNL1       -0.0199
     10 C           9.4530   -0.9411    2.6794 C.ar    1  UNL1        0.1169
     11 O          10.8113   -1.0082    2.7804 O.3     1  UNL1       -0.5068
     12 C           8.6907   -1.3233    3.7752 C.ar    1  UNL1       -0.0199
     13 C           7.2952   -1.2617    3.7075 C.ar    1  UNL1       -0.0550
     14 H           0.5896    0.4821   -0.5565 H       1  UNL1        0.2546
     15 H           0.7600    0.2255    1.0807 H       1  UNL1        0.2546
     16 H           2.3475    0.7200   -1.7376 H       1  UNL1        0.3062
     17 H           2.6418   -0.9669    1.6918 H       1  UNL1        0.2579
     18 H           4.9371    0.7200    0.9504 H       1  UNL1        0.0658
     19 H           4.8429   -0.9654    0.3879 H       1  UNL1        0.0658
     20 H           4.7471   -1.7601    2.7332 H       1  UNL1        0.0344
     21 H           4.7962   -0.0964    3.3222 H       1  UNL1        0.0344
     22 H           7.0152   -0.0843    0.5181 H       1  UNL1        0.0621
     23 H           9.4274   -0.1925    0.6507 H       1  UNL1        0.0654
     24 H          11.1971   -0.7039    1.9420 H       1  UNL1        0.2921
     25 H           9.1813   -1.6685    4.6814 H       1  UNL1        0.0654
     26 H           6.7136   -1.5644    4.5762 H       1  UNL1        0.0621
@<TRIPOS>BOND
     1     1     2    1
     2     2     3    2
     3     2     4    1
     4     4     5    1
     5     5     6    1
     6     6     7    1
     7     7     8   ar
     8     8     9   ar
     9     9    10   ar
    10    10    11    1
    11    10    12   ar
    12    12    13   ar
    13     7    13   ar
    14     1    14    1
    15     1    15    1
    16     3    16    1
    17     4    17    1
    18     5    18    1
    19     5    19    1
    20     6    20    1
    21     6    21    1
    22     8    22    1
    23     9    23    1
    24    11    24    1
    25    12    25    1
    26    13    26    1
