@<TRIPOS>MOLECULE
*****
 48 50 0 0 0
SMALL
GASTEIGER

@<TRIPOS>ATOM
      1 O           1.3818   -0.6643   -0.5817 O.2     1  UNL1       -0.1530
      2 S           2.6517   -0.1125   -0.1783 S.O2    1  UNL1        0.0592
      3 O           3.8423   -0.1851   -0.9980 O.2     1  UNL1       -0.1530
      4 N           2.4438    1.5246    0.1405 N.3     1  UNL1       -0.1868
      5 C           1.1579    2.0730    0.6326 C.3     1  UNL1        0.0311
      6 C           0.0211    1.9853   -0.3903 C.3     1  UNL1       -0.0233
      7 C           0.2057    2.9505   -1.5532 C.3     1  UNL1       -0.0026
      8 N           0.2958    4.3280   -1.0745 N.3     1  UNL1       -0.3159
      9 C           1.4271    4.4926   -0.1644 C.3     1  UNL1       -0.0026
     10 C           1.3625    3.5441    1.0372 C.3     1  UNL1       -0.0233
     11 C           3.0689   -0.9127    1.3545 C.ar    1  UNL1        0.1187
     12 C           3.3277   -0.1514    2.5061 C.ar    1  UNL1       -0.0095
     13 C           3.5430   -0.8047    3.7283 C.ar    1  UNL1        0.0954
     14 S           3.7756    0.1430    5.2224 S.O2    1  UNL1        0.0251
     15 O           3.1043    1.4140    5.0105 O.2     1  UNL1       -0.1643
     16 O           3.3964   -0.7049    6.3381 O.2     1  UNL1       -0.1643
     17 C           5.5171    0.4697    5.3654 C.ar    1  UNL1        0.0936
     18 C           6.0357    1.6648    4.8583 C.ar    1  UNL1       -0.0365
     19 C           7.3942    1.9412    5.0055 C.ar    1  UNL1       -0.0599
     20 C           8.2254    1.0347    5.6658 C.ar    1  UNL1       -0.0616
     21 C           7.6998   -0.1489    6.1876 C.ar    1  UNL1       -0.0599
     22 C           6.3411   -0.4343    6.0438 C.ar    1  UNL1       -0.0365
     23 C           3.4756   -2.1949    3.8164 C.ar    1  UNL1       -0.0358
     24 C           3.2464   -2.9438    2.6641 C.ar    1  UNL1       -0.0464
     25 C           3.0583   -2.3240    1.4101 C.ar    1  UNL1        0.0812
     26 C           2.8633   -3.2532    0.2237 C.3     1  UNL1        0.4192
     27 F           2.7925   -2.6928   -1.0040 F       1  UNL1       -0.1658
     28 F           3.8943   -4.1459    0.1385 F       1  UNL1       -0.1658
     29 F           1.7418   -4.0145    0.3620 F       1  UNL1       -0.1658
     30 H           2.9635    2.0872   -0.5369 H       1  UNL1        0.1483
     31 H           0.8852    1.5074    1.5314 H       1  UNL1        0.0478
     32 H          -0.9212    2.2216    0.1222 H       1  UNL1        0.0293
     33 H          -0.1179    0.9820   -0.7908 H       1  UNL1        0.0293
     34 H          -0.6491    2.8652   -2.2333 H       1  UNL1        0.0424
     35 H           1.0959    2.6931   -2.1398 H       1  UNL1        0.0424
     36 H          -0.5712    4.5724   -0.5932 H       1  UNL1        0.1219
     37 H           1.4365    5.5292    0.1911 H       1  UNL1        0.0424
     38 H           2.3629    4.3507   -0.7176 H       1  UNL1        0.0424
     39 H           0.5219    3.8508    1.6734 H       1  UNL1        0.0293
     40 H           2.2727    3.6604    1.6380 H       1  UNL1        0.0293
     41 H           3.3446    0.9353    2.4641 H       1  UNL1        0.0656
     42 H           5.3928    2.3887    4.3631 H       1  UNL1        0.0637
     43 H           7.8070    2.8697    4.6171 H       1  UNL1        0.0618
     44 H           9.2836    1.2567    5.7850 H       1  UNL1        0.0618
     45 H           8.3508   -0.8418    6.7166 H       1  UNL1        0.0618
     46 H           5.9382   -1.3481    6.4751 H       1  UNL1        0.0637
     47 H           3.5887   -2.7055    4.7714 H       1  UNL1        0.0637
     48 H           3.2008   -4.0317    2.7412 H       1  UNL1        0.0624
@<TRIPOS>BOND
     1     1     2    2
     2     2     3    2
     3     2     4    1
     4     4     5    1
     5     5     6    1
     6     6     7    1
     7     7     8    1
     8     8     9    1
     9     9    10    1
    10     5    10    1
    11     2    11    1
    12    11    12   ar
    13    12    13   ar
    14    13    14    1
    15    14    15    2
    16    14    16    2
    17    14    17    1
    18    17    18   ar
    19    18    19   ar
    20    19    20   ar
    21    20    21   ar
    22    21    22   ar
    23    17    22   ar
    24    13    23   ar
    25    23    24   ar
    26    24    25   ar
    27    11    25   ar
    28    25    26    1
    29    26    27    1
    30    26    28    1
    31    26    29    1
    32     4    30    1
    33     5    31    1
    34     6    32    1
    35     6    33    1
    36     7    34    1
    37     7    35    1
    38     8    36    1
    39     9    37    1
    40     9    38    1
    41    10    39    1
    42    10    40    1
    43    12    41    1
    44    18    42    1
    45    19    43    1
    46    20    44    1
    47    21    45    1
    48    22    46    1
    49    23    47    1
    50    24    48    1
