
     RDKit          3D

 85 86  0  0  0  0  0  0  0  0999 V2000
   -5.7327    1.4409    0.1819 C   0  0  0  0  0  0  0  0  0  0  0  0
   -5.0598    0.4204   -0.3903 O   0  0  0  0  0  0  0  0  0  0  0  0
   -3.5358    0.3446   -0.4503 C   0  0  1  0  0  0  0  0  0  0  0  0
   -3.0065    0.6498    0.9965 C   0  0  0  0  0  0  0  0  0  0  0  0
   -2.2567    1.6926    1.3109 C   0  0  0  0  0  0  0  0  0  0  0  0
   -1.7507    2.7225    0.3975 C   0  0  0  0  0  0  0  0  0  0  0  0
   -1.3174    4.0209    0.6741 C   0  0  0  0  0  0  0  0  0  0  0  0
   -1.2457    4.6011    2.0235 C   0  0  0  0  0  0  0  0  0  0  0  0
   -0.8233    4.8865   -0.5002 C   0  0  0  0  0  0  0  0  0  0  0  0
   -1.1906    5.9428   -0.7017 O   0  0  0  0  0  0  0  0  0  0  0  0
    0.1698    4.3574   -1.4214 N   0  0  0  0  0  0  0  0  0  0  0  0
    0.9831    3.1756   -1.5435 C   0  0  0  0  0  0  0  0  0  0  0  0
    1.1093    2.4093   -2.6885 C   0  0  0  0  0  0  0  0  0  0  0  0
    1.9956    1.2063   -2.6967 C   0  0  0  0  0  0  0  0  0  0  0  0
    2.1281    0.5088   -3.7010 O   0  0  0  0  0  0  0  0  0  0  0  0
    2.7395    0.8440   -1.4382 C   0  0  0  0  0  0  0  0  0  0  0  0
    3.5984   -0.3004   -1.5670 N   0  0  0  0  0  0  0  0  0  0  0  0
    5.0224   -0.3271   -1.3642 C   0  0  0  0  0  0  0  0  0  0  0  0
    5.9799    0.1200   -2.5100 C   0  0  0  0  0  0  0  0  0  0  0  0
    5.6383    0.4686   -3.7569 C   0  0  0  0  0  0  0  0  0  0  0  0
    2.6445    1.5719   -0.2210 C   0  0  0  0  0  0  0  0  0  0  0  0
    3.2800    1.2713    1.1512 C   0  0  0  0  0  0  0  0  0  0  0  0
    2.3842    0.3959    2.2069 C   0  0  1  0  0  0  0  0  0  0  0  0
    1.1198    1.1171    2.7057 C   0  0  0  0  0  0  0  0  0  0  0  0
    1.9276   -0.9919    1.6805 C   0  0  0  0  0  0  0  0  0  0  0  0
    0.7725   -1.8121    2.2893 C   0  0  2  0  0  0  0  0  0  0  0  0
    1.1371   -2.0668    3.6380 O   0  0  0  0  0  0  0  0  0  0  0  0
    0.0574   -2.8061    4.5704 C   0  0  0  0  0  0  0  0  0  0  0  0
    0.5522   -3.2297    1.5468 C   0  0  2  0  0  0  0  0  0  0  0  0
    1.8281   -3.8870    1.5716 O   0  0  0  0  0  0  0  0  0  0  0  0
    0.0817   -3.1688    0.1046 C   0  0  1  0  0  0  0  0  0  0  0  0
   -0.1249   -4.5704   -0.4999 C   0  0  0  0  0  0  0  0  0  0  0  0
   -1.2658   -2.4936   -0.0770 C   0  0  0  0  0  0  0  0  0  0  0  0
   -1.6609   -1.5693   -0.9269 C   0  0  0  0  0  0  0  0  0  0  0  0
   -0.7694   -0.8765   -1.8822 C   0  0  0  0  0  0  0  0  0  0  0  0
   -3.2431   -1.0952   -0.8714 C   0  0  2  0  0  0  0  0  0  0  0  0
   -3.7404   -1.3535   -2.1529 O   0  0  0  0  0  0  0  0  0  0  0  0
   -4.3321   -2.6042   -2.3886 C   0  0  0  0  0  0  0  0  0  0  0  0
   -5.0725   -2.5315   -3.5039 N   0  0  0  0  0  0  0  0  0  0  0  0
   -4.1981   -3.6128   -1.6944 O   0  0  0  0  0  0  0  0  0  0  0  0
    1.7475    2.7869   -0.2633 C   0  0  0  0  0  0  0  0  0  0  0  0
    1.6295    3.4810    0.7596 O   0  0  0  0  0  0  0  0  0  0  0  0
   -6.8009    1.3494   -0.0362 H   0  0  0  0  0  0  0  0  0  0  0  0
   -5.3953    2.4070   -0.2063 H   0  0  0  0  0  0  0  0  0  0  0  0
   -5.6234    1.4409    1.2705 H   0  0  0  0  0  0  0  0  0  0  0  0
   -3.2417    1.0684   -1.2128 H   0  0  0  0  0  0  0  0  0  0  0  0
   -3.3342   -0.0383    1.7720 H   0  0  0  0  0  0  0  0  0  0  0  0
   -2.0008    1.8269    2.3607 H   0  0  0  0  0  0  0  0  0  0  0  0
   -1.7532    2.4455   -0.6541 H   0  0  0  0  0  0  0  0  0  0  0  0
   -1.9795    5.4073    2.1272 H   0  0  0  0  0  0  0  0  0  0  0  0
   -1.4325    3.8827    2.8249 H   0  0  0  0  0  0  0  0  0  0  0  0
   -0.2535    5.0278    2.2048 H   0  0  0  0  0  0  0  0  0  0  0  0
    0.1272    4.9148   -2.2685 H   0  0  0  0  0  0  0  0  0  0  0  0
    0.5906    2.6416   -3.6087 H   0  0  0  0  0  0  0  0  0  0  0  0
    3.3863   -0.7404   -2.4711 H   0  0  0  0  0  0  0  0  0  0  0  0
    5.3148    0.2781   -0.5055 H   0  0  0  0  0  0  0  0  0  0  0  0
    5.3023   -1.3581   -1.1162 H   0  0  0  0  0  0  0  0  0  0  0  0
    7.0322    0.1352   -2.2325 H   0  0  0  0  0  0  0  0  0  0  0  0
    6.3974    0.7619   -4.4758 H   0  0  0  0  0  0  0  0  0  0  0  0
    4.6114    0.4647   -4.1032 H   0  0  0  0  0  0  0  0  0  0  0  0
    3.5682    2.2084    1.6429 H   0  0  0  0  0  0  0  0  0  0  0  0
    4.2073    0.7127    1.0340 H   0  0  0  0  0  0  0  0  0  0  0  0
    3.0269    0.2324    3.0822 H   0  0  0  0  0  0  0  0  0  0  0  0
    0.3881    1.2067    1.9024 H   0  0  0  0  0  0  0  0  0  0  0  0
    0.6578    0.5970    3.5499 H   0  0  0  0  0  0  0  0  0  0  0  0
    1.3726    2.1235    3.0548 H   0  0  0  0  0  0  0  0  0  0  0  0
    1.6630   -0.8559    0.6269 H   0  0  0  0  0  0  0  0  0  0  0  0
    2.8349   -1.6109    1.6755 H   0  0  0  0  0  0  0  0  0  0  0  0
   -0.1657   -1.2485    2.2695 H   0  0  0  0  0  0  0  0  0  0  0  0
    0.0978   -3.8627    4.3090 H   0  0  0  0  0  0  0  0  0  0  0  0
    0.4065   -2.6262    5.5874 H   0  0  0  0  0  0  0  0  0  0  0  0
   -0.9018   -2.3304    4.3648 H   0  0  0  0  0  0  0  0  0  0  0  0
   -0.1395   -3.8353    2.1418 H   0  0  0  0  0  0  0  0  0  0  0  0
    1.6651   -4.8444    1.5936 H   0  0  0  0  0  0  0  0  0  0  0  0
    0.8553   -2.6850   -0.4990 H   0  0  0  0  0  0  0  0  0  0  0  0
   -0.8443   -5.1602    0.0804 H   0  0  0  0  0  0  0  0  0  0  0  0
    0.8182   -5.1267   -0.5246 H   0  0  0  0  0  0  0  0  0  0  0  0
   -0.4880   -4.5122   -1.5331 H   0  0  0  0  0  0  0  0  0  0  0  0
   -2.0285   -2.9181    0.5815 H   0  0  0  0  0  0  0  0  0  0  0  0
    0.2648   -1.2240   -1.8600 H   0  0  0  0  0  0  0  0  0  0  0  0
   -1.1303   -1.0142   -2.9065 H   0  0  0  0  0  0  0  0  0  0  0  0
   -0.7584    0.1961   -1.6694 H   0  0  0  0  0  0  0  0  0  0  0  0
   -3.7580   -1.7482   -0.1511 H   0  0  0  0  0  0  0  0  0  0  0  0
   -5.2079   -1.6396   -3.9532 H   0  0  0  0  0  0  0  0  0  0  0  0
   -5.6292   -3.3291   -3.7703 H   0  0  0  0  0  0  0  0  0  0  0  0
  1  2  1  0
  2  3  1  0
  3  4  1  0
  4  5  2  3
  5  6  1  0
  6  7  2  3
  7  8  1  0
  7  9  1  0
  9 10  2  0
  9 11  1  0
 11 12  1  0
 12 13  2  0
 13 14  1  0
 14 15  2  0
 14 16  1  0
 16 17  1  0
 17 18  1  0
 18 19  1  0
 19 20  2  0
 16 21  2  0
 21 22  1  0
 22 23  1  0
 23 24  1  0
 23 25  1  0
 25 26  1  0
 26 27  1  0
 27 28  1  0
 26 29  1  0
 29 30  1  0
 29 31  1  0
 31 32  1  0
 31 33  1  0
 33 34  2  3
 34 35  1  0
 34 36  1  0
 36 37  1  0
 37 38  1  0
 38 39  1  0
 38 40  2  0
 21 41  1  0
 41 42  2  0
 36  3  1  0
 41 12  1  0
  1 43  1  0
  1 44  1  0
  1 45  1  0
  3 46  1  6
  4 47  1  0
  5 48  1  0
  6 49  1  0
  8 50  1  0
  8 51  1  0
  8 52  1  0
 11 53  1  0
 13 54  1  0
 17 55  1  0
 18 56  1  0
 18 57  1  0
 19 58  1  0
 20 59  1  0
 20 60  1  0
 22 61  1  0
 22 62  1  0
 23 63  1  1
 24 64  1  0
 24 65  1  0
 24 66  1  0
 25 67  1  0
 25 68  1  0
 26 69  1  1
 28 70  1  0
 28 71  1  0
 28 72  1  0
 29 73  1  1
 30 74  1  0
 31 75  1  6
 32 76  1  0
 32 77  1  0
 32 78  1  0
 33 79  1  0
 35 80  1  0
 35 81  1  0
 35 82  1  0
 36 83  1  1
 39 84  1  0
 39 85  1  0
M  END
$$$$
