
     RDKit          3D

 78 79  0  0  0  0  0  0  0  0999 V2000
    4.0927    3.0953   -1.7313 C   0  0  0  0  0  0  0  0  0  0  0  0
    4.0476    1.9292   -1.0498 O   0  0  0  0  0  0  0  0  0  0  0  0
    2.7676    1.3724   -0.4410 C   0  0  1  0  0  0  0  0  0  0  0  0
    1.6742    1.4070   -1.5620 C   0  0  0  0  0  0  0  0  0  0  0  0
    0.5661    2.1265   -1.5111 C   0  0  0  0  0  0  0  0  0  0  0  0
    0.1248    2.9811   -0.4020 C   0  0  0  0  0  0  0  0  0  0  0  0
   -0.7744    4.0497   -0.4075 C   0  0  0  0  0  0  0  0  0  0  0  0
   -1.5159    4.4898   -1.6024 C   0  0  0  0  0  0  0  0  0  0  0  0
   -1.0519    4.7686    0.9239 C   0  0  0  0  0  0  0  0  0  0  0  0
   -0.9976    5.8968    1.0582 O   0  0  0  0  0  0  0  0  0  0  0  0
   -1.4100    3.9956    2.1048 N   0  0  0  0  0  0  0  0  0  0  0  0
   -1.6875    2.6186    2.4271 C   0  0  0  0  0  0  0  0  0  0  0  0
   -1.1312    1.9154    3.4789 C   0  0  0  0  0  0  0  0  0  0  0  0
   -1.5139    0.4913    3.7268 C   0  0  0  0  0  0  0  0  0  0  0  0
   -1.0472   -0.1593    4.6578 O   0  0  0  0  0  0  0  0  0  0  0  0
   -2.5073   -0.1625    2.7995 C   0  0  0  0  0  0  0  0  0  0  0  0
   -2.8306   -1.5201    3.1473 N   0  0  0  0  0  0  0  0  0  0  0  0
   -3.0985    0.4943    1.6889 C   0  0  0  0  0  0  0  0  0  0  0  0
   -4.0611   -0.0837    0.6255 C   0  0  0  0  0  0  0  0  0  0  0  0
   -3.3987   -0.6734   -0.7358 C   0  0  1  0  0  0  0  0  0  0  0  0
   -2.7091    0.3942   -1.6078 C   0  0  0  0  0  0  0  0  0  0  0  0
   -2.3420   -1.7967   -0.5340 C   0  0  0  0  0  0  0  0  0  0  0  0
   -1.2946   -2.2233   -1.5762 C   0  0  2  0  0  0  0  0  0  0  0  0
   -2.0258   -2.6533   -2.7133 O   0  0  0  0  0  0  0  0  0  0  0  0
   -1.1803   -3.0435   -4.0321 C   0  0  0  0  0  0  0  0  0  0  0  0
   -0.3713   -3.4486   -1.0696 C   0  0  2  0  0  0  0  0  0  0  0  0
   -1.2788   -4.4882   -0.6798 O   0  0  0  0  0  0  0  0  0  0  0  0
    0.5478   -3.1591    0.1042 C   0  0  1  0  0  0  0  0  0  0  0  0
    1.4045   -4.3804    0.4874 C   0  0  0  0  0  0  0  0  0  0  0  0
    1.5704   -2.0701   -0.1644 C   0  0  0  0  0  0  0  0  0  0  0  0
    1.9265   -1.0228    0.5496 C   0  0  0  0  0  0  0  0  0  0  0  0
    1.2719   -0.6130    1.8114 C   0  0  0  0  0  0  0  0  0  0  0  0
    3.1316   -0.0594   -0.0420 C   0  0  2  0  0  0  0  0  0  0  0  0
    4.1171   -0.0698    0.9488 O   0  0  0  0  0  0  0  0  0  0  0  0
    5.1264   -1.0420    0.8635 C   0  0  0  0  0  0  0  0  0  0  0  0
    6.1564   -0.6697    1.6357 N   0  0  0  0  0  0  0  0  0  0  0  0
    5.0831   -2.0760    0.1940 O   0  0  0  0  0  0  0  0  0  0  0  0
   -2.7003    1.9340    1.4845 C   0  0  0  0  0  0  0  0  0  0  0  0
   -3.1984    2.5713    0.5446 O   0  0  0  0  0  0  0  0  0  0  0  0
    3.5822    3.0227   -2.6962 H   0  0  0  0  0  0  0  0  0  0  0  0
    5.1332    3.3652   -1.9346 H   0  0  0  0  0  0  0  0  0  0  0  0
    3.6437    3.9101   -1.1547 H   0  0  0  0  0  0  0  0  0  0  0  0
    2.5605    2.0028    0.4260 H   0  0  0  0  0  0  0  0  0  0  0  0
    1.9002    0.8244   -2.4523 H   0  0  0  0  0  0  0  0  0  0  0  0
   -0.0826    2.1119   -2.3852 H   0  0  0  0  0  0  0  0  0  0  0  0
    0.6049    2.7794    0.5529 H   0  0  0  0  0  0  0  0  0  0  0  0
   -2.5798    4.6059   -1.3693 H   0  0  0  0  0  0  0  0  0  0  0  0
   -1.4525    3.7969   -2.4444 H   0  0  0  0  0  0  0  0  0  0  0  0
   -1.1410    5.4609   -1.9419 H   0  0  0  0  0  0  0  0  0  0  0  0
   -1.2425    4.5817    2.9166 H   0  0  0  0  0  0  0  0  0  0  0  0
   -0.4190    2.3546    4.1646 H   0  0  0  0  0  0  0  0  0  0  0  0
   -2.9748   -2.1169    2.3372 H   0  0  0  0  0  0  0  0  0  0  0  0
   -2.1255   -1.8921    3.7920 H   0  0  0  0  0  0  0  0  0  0  0  0
   -4.8118    0.6673    0.3515 H   0  0  0  0  0  0  0  0  0  0  0  0
   -4.6213   -0.9079    1.0850 H   0  0  0  0  0  0  0  0  0  0  0  0
   -4.2275   -1.0875   -1.3249 H   0  0  0  0  0  0  0  0  0  0  0  0
   -1.8021    0.7590   -1.1247 H   0  0  0  0  0  0  0  0  0  0  0  0
   -2.4531    0.0099   -2.5996 H   0  0  0  0  0  0  0  0  0  0  0  0
   -3.3815    1.2439   -1.7640 H   0  0  0  0  0  0  0  0  0  0  0  0
   -2.9230   -2.6798   -0.2363 H   0  0  0  0  0  0  0  0  0  0  0  0
   -1.7640   -1.5188    0.3535 H   0  0  0  0  0  0  0  0  0  0  0  0
   -0.6510   -1.3836   -1.8574 H   0  0  0  0  0  0  0  0  0  0  0  0
   -0.4297   -2.2623   -4.1527 H   0  0  0  0  0  0  0  0  0  0  0  0
   -0.7708   -4.0358   -3.8483 H   0  0  0  0  0  0  0  0  0  0  0  0
   -1.9186   -3.0485   -4.8341 H   0  0  0  0  0  0  0  0  0  0  0  0
    0.2142   -3.8345   -1.9100 H   0  0  0  0  0  0  0  0  0  0  0  0
   -1.9393   -4.5457   -1.3980 H   0  0  0  0  0  0  0  0  0  0  0  0
   -0.0637   -2.9261    0.9809 H   0  0  0  0  0  0  0  0  0  0  0  0
    0.7684   -5.2224    0.7813 H   0  0  0  0  0  0  0  0  0  0  0  0
    2.0599   -4.1593    1.3383 H   0  0  0  0  0  0  0  0  0  0  0  0
    2.0316   -4.7147   -0.3476 H   0  0  0  0  0  0  0  0  0  0  0  0
    2.1349   -2.2581   -1.0819 H   0  0  0  0  0  0  0  0  0  0  0  0
    2.0052   -0.5728    2.6233 H   0  0  0  0  0  0  0  0  0  0  0  0
    0.4725   -1.2805    2.1371 H   0  0  0  0  0  0  0  0  0  0  0  0
    0.8390    0.3847    1.6978 H   0  0  0  0  0  0  0  0  0  0  0  0
    3.5289   -0.5476   -0.9444 H   0  0  0  0  0  0  0  0  0  0  0  0
    6.1470    0.2353    2.0789 H   0  0  0  0  0  0  0  0  0  0  0  0
    6.9949   -1.2301    1.6321 H   0  0  0  0  0  0  0  0  0  0  0  0
  1  2  1  0
  2  3  1  0
  3  4  1  0
  4  5  2  3
  5  6  1  0
  6  7  2  3
  7  8  1  0
  7  9  1  0
  9 10  2  0
  9 11  1  0
 11 12  1  0
 12 13  2  0
 13 14  1  0
 14 15  2  0
 14 16  1  0
 16 17  1  0
 16 18  2  0
 18 19  1  0
 19 20  1  0
 20 21  1  0
 20 22  1  0
 22 23  1  0
 23 24  1  0
 24 25  1  0
 23 26  1  0
 26 27  1  0
 26 28  1  0
 28 29  1  0
 28 30  1  0
 30 31  2  3
 31 32  1  0
 31 33  1  0
 33 34  1  0
 34 35  1  0
 35 36  1  0
 35 37  2  0
 18 38  1  0
 38 39  2  0
 33  3  1  0
 38 12  1  0
  1 40  1  0
  1 41  1  0
  1 42  1  0
  3 43  1  1
  4 44  1  0
  5 45  1  0
  6 46  1  0
  8 47  1  0
  8 48  1  0
  8 49  1  0
 11 50  1  0
 13 51  1  0
 17 52  1  0
 17 53  1  0
 19 54  1  0
 19 55  1  0
 20 56  1  6
 21 57  1  0
 21 58  1  0
 21 59  1  0
 22 60  1  0
 22 61  1  0
 23 62  1  6
 25 63  1  0
 25 64  1  0
 25 65  1  0
 26 66  1  6
 27 67  1  0
 28 68  1  1
 29 69  1  0
 29 70  1  0
 29 71  1  0
 30 72  1  0
 32 73  1  0
 32 74  1  0
 32 75  1  0
 33 76  1  6
 36 77  1  0
 36 78  1  0
M  END
$$$$
