
     RDKit          3D

 92 93  0  0  0  0  0  0  0  0999 V2000
   -5.9654    1.9883   -1.2072 C   0  0  0  0  0  0  0  0  0  0  0  0
   -5.2179    0.9592   -1.6776 O   0  0  0  0  0  0  0  0  0  0  0  0
   -3.7715    0.7215   -1.2760 C   0  0  1  0  0  0  0  0  0  0  0  0
   -3.6893    0.8381    0.2839 C   0  0  0  0  0  0  0  0  0  0  0  0
   -2.9918    1.7618    0.9259 C   0  0  0  0  0  0  0  0  0  0  0  0
   -2.1563    2.8110    0.3278 C   0  0  0  0  0  0  0  0  0  0  0  0
   -1.7310    4.0233    0.8773 C   0  0  0  0  0  0  0  0  0  0  0  0
   -2.0466    4.4585    2.2448 C   0  0  0  0  0  0  0  0  0  0  0  0
   -0.8292    4.9281    0.0197 C   0  0  0  0  0  0  0  0  0  0  0  0
   -1.0316    6.0326   -0.1554 O   0  0  0  0  0  0  0  0  0  0  0  0
    0.3589    4.3791   -0.6165 N   0  0  0  0  0  0  0  0  0  0  0  0
    1.0724    3.1257   -0.6253 C   0  0  0  0  0  0  0  0  0  0  0  0
    1.4851    2.4540   -1.7632 C   0  0  0  0  0  0  0  0  0  0  0  0
    2.2375    1.1670   -1.6440 C   0  0  0  0  0  0  0  0  0  0  0  0
    2.6181    0.5459   -2.6325 O   0  0  0  0  0  0  0  0  0  0  0  0
    2.5269    0.6210   -0.2700 C   0  0  0  0  0  0  0  0  0  0  0  0
    3.2905   -0.5997   -0.2706 N   0  0  0  0  0  0  0  0  0  0  0  0
    4.5526   -0.8496    0.3203 C   0  0  0  0  0  0  0  0  0  0  0  0
    5.8973   -0.2915   -0.3255 C   0  0  0  0  0  0  0  0  0  0  0  0
    6.3281   -0.3108   -1.7663 N   0  0  0  0  0  0  0  0  0  0  0  0
    7.6713    0.1569   -1.8827 C   0  0  0  0  0  0  0  0  0  0  0  0
    5.6126    0.5681   -2.6327 C   0  0  0  0  0  0  0  0  0  0  0  0
    2.1169    1.2418    0.9390 C   0  0  0  0  0  0  0  0  0  0  0  0
    2.2558    0.7598    2.3908 C   0  0  0  0  0  0  0  0  0  0  0  0
    1.0370   -0.1124    3.0176 C   0  0  1  0  0  0  0  0  0  0  0  0
   -0.2695    0.6987    3.1892 C   0  0  0  0  0  0  0  0  0  0  0  0
    0.6471   -1.3871    2.2187 C   0  0  0  0  0  0  0  0  0  0  0  0
   -0.7022   -2.1253    2.3556 C   0  0  2  0  0  0  0  0  0  0  0  0
   -0.7916   -2.5356    3.7099 O   0  0  0  0  0  0  0  0  0  0  0  0
   -2.1688   -3.2267    4.1817 C   0  0  0  0  0  0  0  0  0  0  0  0
   -0.7913   -3.4400    1.4197 C   0  0  2  0  0  0  0  0  0  0  0  0
    0.3613   -4.2310    1.7487 O   0  0  0  0  0  0  0  0  0  0  0  0
   -0.7825   -3.2015   -0.0798 C   0  0  1  0  0  0  0  0  0  0  0  0
   -0.8984   -4.5128   -0.8791 C   0  0  0  0  0  0  0  0  0  0  0  0
   -1.9511   -2.3694   -0.5792 C   0  0  0  0  0  0  0  0  0  0  0  0
   -1.9890   -1.3351   -1.3942 C   0  0  0  0  0  0  0  0  0  0  0  0
   -0.7933   -0.6660   -1.9480 C   0  0  0  0  0  0  0  0  0  0  0  0
   -3.4690   -0.6974   -1.7611 C   0  0  2  0  0  0  0  0  0  0  0  0
   -3.5619   -0.7859   -3.1530 O   0  0  0  0  0  0  0  0  0  0  0  0
   -4.1451   -1.9372   -3.7032 C   0  0  0  0  0  0  0  0  0  0  0  0
   -4.4971   -1.6845   -4.9718 N   0  0  0  0  0  0  0  0  0  0  0  0
   -4.3094   -3.0129   -3.1262 O   0  0  0  0  0  0  0  0  0  0  0  0
    1.3694    2.5487    0.7664 C   0  0  0  0  0  0  0  0  0  0  0  0
    0.9914    3.1569    1.7860 O   0  0  0  0  0  0  0  0  0  0  0  0
   -6.2060    1.8621   -0.1474 H   0  0  0  0  0  0  0  0  0  0  0  0
   -6.9121    2.0362   -1.7531 H   0  0  0  0  0  0  0  0  0  0  0  0
   -5.4514    2.9448   -1.3431 H   0  0  0  0  0  0  0  0  0  0  0  0
   -3.1955    1.4705   -1.8228 H   0  0  0  0  0  0  0  0  0  0  0  0
   -4.2888    0.1229    0.8420 H   0  0  0  0  0  0  0  0  0  0  0  0
   -3.0584    1.7722    2.0125 H   0  0  0  0  0  0  0  0  0  0  0  0
   -1.8551    2.6310   -0.7014 H   0  0  0  0  0  0  0  0  0  0  0  0
   -2.7106    5.3290    2.2195 H   0  0  0  0  0  0  0  0  0  0  0  0
   -1.1330    4.7525    2.7726 H   0  0  0  0  0  0  0  0  0  0  0  0
   -2.5321    3.6947    2.8561 H   0  0  0  0  0  0  0  0  0  0  0  0
    0.6221    5.0084   -1.3680 H   0  0  0  0  0  0  0  0  0  0  0  0
    1.2952    2.8206   -2.7629 H   0  0  0  0  0  0  0  0  0  0  0  0
    3.3305   -0.9182   -1.2513 H   0  0  0  0  0  0  0  0  0  0  0  0
    4.5769   -0.5646    1.3728 H   0  0  0  0  0  0  0  0  0  0  0  0
    4.6720   -1.9412    0.3280 H   0  0  0  0  0  0  0  0  0  0  0  0
    5.9515    0.7567    0.0055 H   0  0  0  0  0  0  0  0  0  0  0  0
    6.6857   -0.8117    0.2379 H   0  0  0  0  0  0  0  0  0  0  0  0
    8.0618    0.0566   -2.9041 H   0  0  0  0  0  0  0  0  0  0  0  0
    7.8046    1.2005   -1.5675 H   0  0  0  0  0  0  0  0  0  0  0  0
    8.3492   -0.4501   -1.2691 H   0  0  0  0  0  0  0  0  0  0  0  0
    6.1240    0.7826   -3.5815 H   0  0  0  0  0  0  0  0  0  0  0  0
    5.3486    1.5276   -2.1738 H   0  0  0  0  0  0  0  0  0  0  0  0
    4.7109    0.0510   -2.9486 H   0  0  0  0  0  0  0  0  0  0  0  0
    2.4350    1.6174    3.0513 H   0  0  0  0  0  0  0  0  0  0  0  0
    3.1447    0.1400    2.4981 H   0  0  0  0  0  0  0  0  0  0  0  0
    1.3602   -0.4206    4.0206 H   0  0  0  0  0  0  0  0  0  0  0  0
   -0.7041    0.9341    2.2173 H   0  0  0  0  0  0  0  0  0  0  0  0
   -0.0631    1.6379    3.7124 H   0  0  0  0  0  0  0  0  0  0  0  0
   -1.0084    0.1594    3.7889 H   0  0  0  0  0  0  0  0  0  0  0  0
    1.4615   -2.0997    2.4052 H   0  0  0  0  0  0  0  0  0  0  0  0
    0.7276   -1.1274    1.1580 H   0  0  0  0  0  0  0  0  0  0  0  0
   -1.5411   -1.4623    2.1214 H   0  0  0  0  0  0  0  0  0  0  0  0
   -2.1357   -3.1807    5.2704 H   0  0  0  0  0  0  0  0  0  0  0  0
   -2.9724   -2.6241    3.7581 H   0  0  0  0  0  0  0  0  0  0  0  0
   -2.1368   -4.2523    3.8167 H   0  0  0  0  0  0  0  0  0  0  0  0
   -1.6718   -4.0277    1.6972 H   0  0  0  0  0  0  0  0  0  0  0  0
    0.4306   -4.2053    2.7229 H   0  0  0  0  0  0  0  0  0  0  0  0
    0.1757   -2.7545   -0.3603 H   0  0  0  0  0  0  0  0  0  0  0  0
   -0.8876   -4.3260   -1.9596 H   0  0  0  0  0  0  0  0  0  0  0  0
   -0.0550   -5.1762   -0.6587 H   0  0  0  0  0  0  0  0  0  0  0  0
   -1.8194   -5.0561   -0.6367 H   0  0  0  0  0  0  0  0  0  0  0  0
   -2.9106   -2.7670   -0.2379 H   0  0  0  0  0  0  0  0  0  0  0  0
   -0.7651    0.3764   -1.6187 H   0  0  0  0  0  0  0  0  0  0  0  0
    0.1520   -1.1259   -1.6557 H   0  0  0  0  0  0  0  0  0  0  0  0
   -0.8267   -0.6736   -3.0423 H   0  0  0  0  0  0  0  0  0  0  0  0
   -4.2297   -1.3531   -1.3118 H   0  0  0  0  0  0  0  0  0  0  0  0
   -4.9830   -2.3969   -5.4943 H   0  0  0  0  0  0  0  0  0  0  0  0
   -4.3959   -0.7532   -5.3430 H   0  0  0  0  0  0  0  0  0  0  0  0
  1  2  1  0
  2  3  1  0
  3  4  1  0
  4  5  2  3
  5  6  1  0
  6  7  2  3
  7  8  1  0
  7  9  1  0
  9 10  2  0
  9 11  1  0
 11 12  1  0
 12 13  2  0
 13 14  1  0
 14 15  2  0
 14 16  1  0
 16 17  1  0
 17 18  1  0
 18 19  1  0
 19 20  1  0
 20 21  1  0
 20 22  1  0
 16 23  2  0
 23 24  1  0
 24 25  1  0
 25 26  1  0
 25 27  1  0
 27 28  1  0
 28 29  1  0
 29 30  1  0
 28 31  1  0
 31 32  1  0
 31 33  1  0
 33 34  1  0
 33 35  1  0
 35 36  2  3
 36 37  1  0
 36 38  1  0
 38 39  1  0
 39 40  1  0
 40 41  1  0
 40 42  2  0
 23 43  1  0
 43 44  2  0
 38  3  1  0
 43 12  1  0
  1 45  1  0
  1 46  1  0
  1 47  1  0
  3 48  1  6
  4 49  1  0
  5 50  1  0
  6 51  1  0
  8 52  1  0
  8 53  1  0
  8 54  1  0
 11 55  1  0
 13 56  1  0
 17 57  1  0
 18 58  1  0
 18 59  1  0
 19 60  1  0
 19 61  1  0
 21 62  1  0
 21 63  1  0
 21 64  1  0
 22 65  1  0
 22 66  1  0
 22 67  1  0
 24 68  1  0
 24 69  1  0
 25 70  1  1
 26 71  1  0
 26 72  1  0
 26 73  1  0
 27 74  1  0
 27 75  1  0
 28 76  1  6
 30 77  1  0
 30 78  1  0
 30 79  1  0
 31 80  1  1
 32 81  1  0
 33 82  1  6
 34 83  1  0
 34 84  1  0
 34 85  1  0
 35 86  1  0
 37 87  1  0
 37 88  1  0
 37 89  1  0
 38 90  1  1
 41 91  1  0
 41 92  1  0
M  END
$$$$
