@<TRIPOS>MOLECULE
*****
 48 51 0 0 0
SMALL
GASTEIGER

@<TRIPOS>ATOM
      1 C           3.1683   -2.0829   -0.2195 C.3     1  UNL1       -0.0526
      2 C           2.6151   -0.9159    0.6154 C.3     1  UNL1        0.0293
      3 C           1.9790   -1.4234    1.9099 C.3     1  UNL1       -0.0404
      4 C           0.6623   -2.1684    1.6183 C.3     1  UNL1       -0.0486
      5 C          -0.3165   -1.3837    0.6984 C.3     1  UNL1       -0.0322
      6 C           0.3795   -0.7936   -0.5721 C.3     1  UNL1       -0.0340
      7 C          -0.5779    0.0528   -1.4360 C.3     1  UNL1       -0.0493
      8 C          -1.8883   -0.6808   -1.7712 C.3     1  UNL1       -0.0471
      9 C          -2.5158   -1.1636   -0.4709 C.3     1  UNL1       -0.0093
     10 C          -1.6002   -2.1520    0.3085 C.3     1  UNL1       -0.0237
     11 C          -2.5396   -2.4511    1.4900 C.3     1  UNL1       -0.0447
     12 C          -3.9270   -2.6198    0.8435 C.3     1  UNL1       -0.0261
     13 C          -3.8826   -1.8394   -0.4915 C.3     1  UNL1        0.0586
     14 O          -4.0258   -2.6740   -1.6314 O.3     1  UNL1       -0.3915
     15 C          -1.2934   -3.4602   -0.4582 C.3     1  UNL1       -0.0590
     16 C           1.5804    0.0082   -0.0652 C.3     1  UNL1       -0.0255
     17 C           2.3381    0.9246   -1.0156 C.3     1  UNL1       -0.0424
     18 C           3.7426    1.0541   -0.4252 C.3     1  UNL1        0.0067
     19 C           3.7354    0.0877    0.7390 C.2     1  UNL1        0.1395
     20 O           4.5928    0.0666    1.6196 O.2     1  UNL1       -0.2968
     21 H           3.7330   -1.7441   -1.0940 H       1  UNL1        0.0239
     22 H           3.8643   -2.6784    0.3885 H       1  UNL1        0.0239
     23 H           2.3946   -2.7708   -0.5706 H       1  UNL1        0.0239
     24 H           1.7780   -0.5858    2.5865 H       1  UNL1        0.0275
     25 H           2.6664   -2.0850    2.4486 H       1  UNL1        0.0275
     26 H           0.9201   -3.1352    1.1775 H       1  UNL1        0.0268
     27 H           0.1642   -2.3927    2.5720 H       1  UNL1        0.0268
     28 H          -0.6352   -0.5192    1.3028 H       1  UNL1        0.0309
     29 H           0.7224   -1.6141   -1.2121 H       1  UNL1        0.0307
     30 H          -0.0865    0.3399   -2.3727 H       1  UNL1        0.0268
     31 H          -0.8191    0.9833   -0.9092 H       1  UNL1        0.0268
     32 H          -1.6939   -1.5002   -2.4649 H       1  UNL1        0.0269
     33 H          -2.5667    0.0078   -2.2842 H       1  UNL1        0.0269
     34 H          -2.6443   -0.2672    0.1528 H       1  UNL1        0.0331
     35 H          -2.2398   -3.3246    2.0733 H       1  UNL1        0.0271
     36 H          -2.5696   -1.5927    2.1781 H       1  UNL1        0.0271
     37 H          -4.6934   -2.2078    1.5104 H       1  UNL1        0.0290
     38 H          -4.1535   -3.6812    0.6986 H       1  UNL1        0.0290
     39 H          -4.6823   -1.0950   -0.5319 H       1  UNL1        0.0596
     40 H          -4.1324   -3.5959   -1.3492 H       1  UNL1        0.2098
     41 H          -0.4919   -4.0370    0.0093 H       1  UNL1        0.0235
     42 H          -0.9914   -3.2833   -1.4958 H       1  UNL1        0.0235
     43 H          -2.1494   -4.1430   -0.4876 H       1  UNL1        0.0235
     44 H           1.1929    0.6940    0.7084 H       1  UNL1        0.0313
     45 H           1.8556    1.9095   -1.0402 H       1  UNL1        0.0272
     46 H           2.3625    0.5505   -2.0433 H       1  UNL1        0.0272
     47 H           3.9556    2.0710   -0.0811 H       1  UNL1        0.0342
     48 H           4.4908    0.7356   -1.1581 H       1  UNL1        0.0342
@<TRIPOS>BOND
     1     1     2    1
     2     2     3    1
     3     3     4    1
     4     4     5    1
     5     5     6    1
     6     6     7    1
     7     7     8    1
     8     8     9    1
     9     9    10    1
    10     5    10    1
    11    10    11    1
    12    11    12    1
    13    12    13    1
    14     9    13    1
    15    13    14    1
    16    10    15    1
    17     6    16    1
    18     2    16    1
    19    16    17    1
    20    17    18    1
    21    18    19    1
    22     2    19    1
    23    19    20    2
    24     1    21    1
    25     1    22    1
    26     1    23    1
    27     3    24    1
    28     3    25    1
    29     4    26    1
    30     4    27    1
    31     5    28    1
    32     6    29    1
    33     7    30    1
    34     7    31    1
    35     8    32    1
    36     8    33    1
    37     9    34    1
    38    11    35    1
    39    11    36    1
    40    12    37    1
    41    12    38    1
    42    13    39    1
    43    14    40    1
    44    15    41    1
    45    15    42    1
    46    15    43    1
    47    16    44    1
    48    17    45    1
    49    17    46    1
    50    18    47    1
    51    18    48    1
